version 3
run General-0-20211106-19:48:34-8966
attr configname General
attr datetime 20211106-19:48:34
attr datetimef 20211106-194834
attr experiment General
attr inifile omnetpp.ini
attr iterationvars ""
attr iterationvarsd ""
attr iterationvarsf ""
attr measurement ""
attr network MobileHttpNetwork
attr processid 8966
attr repetition 0
attr replication #0
attr resultdir results
attr runnumber 0
attr seedset 0
config image-path ../../../../../../../../../Software/inet4.3/images:../../../../../../../../../Software/Simu5G-1.2.0/images
config sim-time-limit 20s
config **.routingRecorder.enabled false
config **.vector-recording false
config network MobileHttpNetwork
config *.configurator.config "xmldoc(\"./config.xml\")"
config **.httpController.config "xmldoc(\"controller_cfg.xml\",\"//controller-profile[@id='uniform']\")"
config **.server.numApps 1
config **.server.app[0].typename HttpServer
config **.server.app[0].hostName "\"www.single.org\""
config **.server.app[0].config "xmldoc(\"server_cfg.xml\",\"//server-profile[@id='normal']\")"
config **.server.app[0].activationTime 0s
config **.ueTxPower 26
config **.eNodeBTxPower 40
config **.targetBler 0.01
config **.blerShift 5
config *.ue.macCellId 1
config *.ue.masterId 1
config *.ue.nrMacCellId 1
config *.ue.nrMasterId 1
config *.ue.numApps 1
config *.ue.app[0].typename HttpBrowser
config **.ue.app[0].config "xmldoc(\"browser_cfg.xml\",\"//user-profile[@id='normal']\")"
config **.tcp.typename Tcp
config **.tcp.mss 1024
config **.tcp.advertisedWindow 14336
config **.tcp.tcpAlgorithmClass "\"TcpReno\""
config **.server.forwarding false
config **.arp.retryTimeout 1s
config **.arp.retryCount 3
config **.arp.cacheTimeout 100s
config **.ipv4.arp.proxyArpInterfaces "\"*\""

par MobileHttpNetwork.server.pppg$o[0].channel typename "\"inet.node.ethernet.Eth10G\""
par MobileHttpNetwork.server.pppg$o[0].channel disabled false
par MobileHttpNetwork.server.pppg$o[0].channel delay 5e-08s
attr unit s
par MobileHttpNetwork.server.pppg$o[0].channel datarate 1e+10bps
attr unit bps
par MobileHttpNetwork.server.pppg$o[0].channel ber 0
par MobileHttpNetwork.server.pppg$o[0].channel per 0
par MobileHttpNetwork.server.pppg$o[0].channel length 10m
attr unit m
par MobileHttpNetwork.router.pppg$o[0].channel typename "\"inet.node.ethernet.Eth10G\""
par MobileHttpNetwork.router.pppg$o[0].channel disabled false
par MobileHttpNetwork.router.pppg$o[0].channel delay 5e-08s
attr unit s
par MobileHttpNetwork.router.pppg$o[0].channel datarate 1e+10bps
attr unit bps
par MobileHttpNetwork.router.pppg$o[0].channel ber 0
par MobileHttpNetwork.router.pppg$o[0].channel per 0
par MobileHttpNetwork.router.pppg$o[0].channel length 10m
attr unit m
par MobileHttpNetwork.router.pppg$o[1].channel typename "\"inet.node.ethernet.Eth10G\""
par MobileHttpNetwork.router.pppg$o[1].channel disabled false
par MobileHttpNetwork.router.pppg$o[1].channel delay 5e-08s
attr unit s
par MobileHttpNetwork.router.pppg$o[1].channel datarate 1e+10bps
attr unit bps
par MobileHttpNetwork.router.pppg$o[1].channel ber 0
par MobileHttpNetwork.router.pppg$o[1].channel per 0
par MobileHttpNetwork.router.pppg$o[1].channel length 10m
attr unit m
par MobileHttpNetwork.upf.filterGate$o.channel typename "\"inet.node.ethernet.Eth10G\""
par MobileHttpNetwork.upf.filterGate$o.channel disabled false
par MobileHttpNetwork.upf.filterGate$o.channel delay 5e-08s
attr unit s
par MobileHttpNetwork.upf.filterGate$o.channel datarate 1e+10bps
attr unit bps
par MobileHttpNetwork.upf.filterGate$o.channel ber 0
par MobileHttpNetwork.upf.filterGate$o.channel per 0
par MobileHttpNetwork.upf.filterGate$o.channel length 10m
attr unit m
par MobileHttpNetwork.upf.pppg$o[0].channel typename "\"inet.node.ethernet.Eth10G\""
par MobileHttpNetwork.upf.pppg$o[0].channel disabled false
par MobileHttpNetwork.upf.pppg$o[0].channel delay 5e-08s
attr unit s
par MobileHttpNetwork.upf.pppg$o[0].channel datarate 1e+10bps
attr unit bps
par MobileHttpNetwork.upf.pppg$o[0].channel ber 0
par MobileHttpNetwork.upf.pppg$o[0].channel per 0
par MobileHttpNetwork.upf.pppg$o[0].channel length 10m
attr unit m
par MobileHttpNetwork.gnb.ppp$o.channel typename "\"inet.node.ethernet.Eth10G\""
par MobileHttpNetwork.gnb.ppp$o.channel disabled false
par MobileHttpNetwork.gnb.ppp$o.channel delay 5e-08s
attr unit s
par MobileHttpNetwork.gnb.ppp$o.channel datarate 1e+10bps
attr unit bps
par MobileHttpNetwork.gnb.ppp$o.channel ber 0
par MobileHttpNetwork.gnb.ppp$o.channel per 0
par MobileHttpNetwork.gnb.ppp$o.channel length 10m
attr unit m
par MobileHttpNetwork.httpController typename "\"inet.applications.httptools.configurator.HttpController\""
par MobileHttpNetwork.httpController events "\"\""
par MobileHttpNetwork.httpController eventsSection "\"\""
par MobileHttpNetwork.httpController config "<controller-profile id=\"uniform\">...</controller-profile> at /home/chris/Documents/STUDIA/Praca_mgr/Symulacje/v2x-mec/omnet/v2x-sim/simulations/mobile_web/controller_cfg.xml:7"
par MobileHttpNetwork.channelControl typename "\"simu5g.world.radio.LteChannelControl\""
par MobileHttpNetwork.channelControl coreDebug false
par MobileHttpNetwork.channelControl pMax 20mW
attr unit mW
par MobileHttpNetwork.channelControl sat -110dBm
attr unit dBm
par MobileHttpNetwork.channelControl alpha 2
par MobileHttpNetwork.channelControl carrierFrequency 2.4e+09Hz
attr unit Hz
par MobileHttpNetwork.channelControl numChannels 1
par MobileHttpNetwork.channelControl propagationModel "\"FreeSpaceModel\""
attr enum FreeSpaceModel,TwoRayGroundModel,RiceModel,RayleighModel,NakagamiModel,LogNormalShadowingModel
par MobileHttpNetwork.routingRecorder typename "\"inet.networklayer.ipv4.RoutingTableRecorder\""
par MobileHttpNetwork.routingRecorder enabled false
par MobileHttpNetwork.server.pppg$i[0].channel typename "\"ned.IdealChannel\""
par MobileHttpNetwork.server.ppp[0].phys$o.channel typename "\"ned.IdealChannel\""
par MobileHttpNetwork.server.interfaceTable typename "\"inet.networklayer.common.InterfaceTable\""
par MobileHttpNetwork.server.interfaceTable displayAddresses false
par MobileHttpNetwork.server.li typename "\"inet.common.MessageDispatcher\""
par MobileHttpNetwork.server.li displayStringTextFormat "\"processed %p pk (%l)\""
par MobileHttpNetwork.server.lo[0].upperLayerIn.channel typename "\"ned.IdealChannel\""
par MobileHttpNetwork.server.lo[0].lo.upperLayerOut.channel typename "\"ned.IdealChannel\""
par MobileHttpNetwork.server.lo[0].lo typename "\"inet.linklayer.loopback.Loopback\""
par MobileHttpNetwork.server.lo[0].lo interfaceTableModule "\"MobileHttpNetwork.server.interfaceTable\""
par MobileHttpNetwork.server.lo[0].lo mtu 4470B
attr unit B
scalar MobileHttpNetwork.server.lo[0].lo rcvdPkFromHl:count 0
attr interpolationmode none
attr source packetReceivedFromUpper
attr title "packets received from higher layer, count"
scalar MobileHttpNetwork.server.lo[0].lo rcvdPkFromHl:sum(packetBytes) 0
attr interpolationmode none
attr source packetReceivedFromUpper
attr title "packets received from higher layer, sum(packetBytes)"
scalar MobileHttpNetwork.server.lo[0].lo passedUpPk:count 0
attr interpolationmode none
attr source packetSentToUpper
attr title "packets passed to higher layer, count"
scalar MobileHttpNetwork.server.lo[0].lo passedUpPk:sum(packetBytes) 0
attr interpolationmode none
attr source packetSentToUpper
attr title "packets passed to higher layer, sum(packetBytes)"
par MobileHttpNetwork.server.lo[0] typename "\"inet.linklayer.loopback.LoopbackInterface\""
par MobileHttpNetwork.server.lo[0] displayStringTextFormat "\"%a (%i)\\n%m\""
par MobileHttpNetwork.server.lo[0] recordPcap false
par MobileHttpNetwork.server.lo[0] numPcapRecorders 0
par MobileHttpNetwork.server.lo[0] interfaceTableModule "\"MobileHttpNetwork.server.interfaceTable\""
par MobileHttpNetwork.server.ppp[0].upperLayerIn.channel typename "\"ned.IdealChannel\""
par MobileHttpNetwork.server.ppp[0].phys$i.channel typename "\"ned.IdealChannel\""
par MobileHttpNetwork.server.ppp[0].ppp.phys$o.channel typename "\"ned.IdealChannel\""
par MobileHttpNetwork.server.ppp[0].ppp.upperLayerOut.channel typename "\"ned.IdealChannel\""
par MobileHttpNetwork.server.ppp[0].ppp.queue typename "\"inet.queueing.queue.DropTailQueue\""
par MobileHttpNetwork.server.ppp[0].ppp.queue displayStringTextFormat "\"contains %p pk (%l) pushed %u\\npulled %o removed %r dropped %d\""
par MobileHttpNetwork.server.ppp[0].ppp.queue packetCapacity 10000
par MobileHttpNetwork.server.ppp[0].ppp.queue dataCapacity -1b
attr unit b
par MobileHttpNetwork.server.ppp[0].ppp.queue dropperClass "\"inet::queueing::PacketAtCollectionEndDropper\""
par MobileHttpNetwork.server.ppp[0].ppp.queue comparatorClass "\"\""
par MobileHttpNetwork.server.ppp[0].ppp.queue bufferModule "\"\""
scalar MobileHttpNetwork.server.ppp[0].ppp.queue packetPulled:count 0
attr interpolationmode none
attr title "packet pulled, count"
scalar MobileHttpNetwork.server.ppp[0].ppp.queue packetPulled:sum(packetBytes) 0
attr interpolationmode none
attr title "packet pulled, sum(packetBytes)"
statistic MobileHttpNetwork.server.ppp[0].ppp.queue queueingTime:histogram
field count 0
field mean -nan
field stddev -nan
field min -nan
field max -nan
field sum 0
field sqrsum 0
attr interpolationmode none
attr source queueingTime(packetPulled)
attr title "queueing times, histogram"
attr unit s
bin	-inf	0
bin	0	0
bin	1	0
scalar MobileHttpNetwork.server.ppp[0].ppp.queue queueLength:max -nan
attr autoWarmupFilter false
attr interpolationmode sample-hold
attr source "warmup(count(packetPushed) - count(packetPulled) - count(packetRemoved) - count(packetDropped))"
attr title "queue length, max"
attr type int
scalar MobileHttpNetwork.server.ppp[0].ppp.queue queueLength:timeavg -nan
attr autoWarmupFilter false
attr interpolationmode sample-hold
attr source "warmup(count(packetPushed) - count(packetPulled) - count(packetRemoved) - count(packetDropped))"
attr title "queue length, timeavg"
attr type int
scalar MobileHttpNetwork.server.ppp[0].ppp.queue packetPushed:count 0
attr interpolationmode none
attr title "packet pushed, count"
scalar MobileHttpNetwork.server.ppp[0].ppp.queue packetPushed:sum(packetBytes) 0
attr interpolationmode none
attr title "packet pushed, sum(packetBytes)"
scalar MobileHttpNetwork.server.ppp[0].ppp.queue packetDropQueueOverflow:count 0
attr interpolationmode none
attr source packetDropReasonIsQueueOverflow(packetDropped)
attr title "packet drops: queue overflow, count"
scalar MobileHttpNetwork.server.ppp[0].ppp.queue packetDropQueueOverflow:sum(packetBytes) 0
attr interpolationmode none
attr source packetDropReasonIsQueueOverflow(packetDropped)
attr title "packet drops: queue overflow, sum(packetBytes)"
scalar MobileHttpNetwork.server.ppp[0].ppp.queue packetRemoved:count 0
attr interpolationmode none
attr title "packets removed, count"
scalar MobileHttpNetwork.server.ppp[0].ppp.queue packetRemoved:sum(packetBytes) 0
attr interpolationmode none
attr title "packets removed, sum(packetBytes)"
par MobileHttpNetwork.server.ppp[0].ppp typename "\"inet.linklayer.ppp.Ppp\""
par MobileHttpNetwork.server.ppp[0].ppp interfaceTableModule "\"MobileHttpNetwork.server.interfaceTable\""
par MobileHttpNetwork.server.ppp[0].ppp displayStringTextFormat "\"rate: %b\\nsent: %s, rcvd: %r\\nqueue: %q, drop: %d\""
par MobileHttpNetwork.server.ppp[0].ppp sendRawBytes false
par MobileHttpNetwork.server.ppp[0].ppp mtu 4470B
attr unit B
par MobileHttpNetwork.server.ppp[0].ppp stopOperationExtraTime -1s
attr unit s
par MobileHttpNetwork.server.ppp[0].ppp stopOperationTimeout 2s
attr unit s
scalar MobileHttpNetwork.server.ppp[0].ppp transmissionState:timeavg 0
attr interpolationmode sample-hold
attr source transmissionStateChanged
attr title "tx state, timeavg"
scalar MobileHttpNetwork.server.ppp[0].ppp rxPkOk:count 0
attr interpolationmode none
attr source rxPkOk
attr title "packets received OK, count"
scalar MobileHttpNetwork.server.ppp[0].ppp rxPkOk:sum(packetBytes) 0
attr interpolationmode none
attr source rxPkOk
attr title "packets received OK, sum(packetBytes)"
scalar MobileHttpNetwork.server.ppp[0].ppp txPk:count 0
attr interpolationmode none
attr source packetSentToLower
attr title "packets transmitted, count"
scalar MobileHttpNetwork.server.ppp[0].ppp txPk:sum(packetBytes) 0
attr interpolationmode none
attr source packetSentToLower
attr title "packets transmitted, sum(packetBytes)"
scalar MobileHttpNetwork.server.ppp[0].ppp rcvdPkFromHl:count 0
attr interpolationmode none
attr source packetReceivedFromUpper
attr title "packets received from higher layer, count"
scalar MobileHttpNetwork.server.ppp[0].ppp rcvdPkFromHl:sum(packetBytes) 0
attr interpolationmode none
attr source packetReceivedFromUpper
attr title "packets received from higher layer, sum(packetBytes)"
scalar MobileHttpNetwork.server.ppp[0].ppp passedUpPk:count 0
attr interpolationmode none
attr source packetSentToUpper
attr title "packets passed to higher layer, count"
scalar MobileHttpNetwork.server.ppp[0].ppp passedUpPk:sum(packetBytes) 0
attr interpolationmode none
attr source packetSentToUpper
attr title "packets passed to higher layer, sum(packetBytes)"
scalar MobileHttpNetwork.server.ppp[0].ppp packetDropIncorrectlyReceived:count 0
attr interpolationmode none
attr source packetDropReasonIsIncorrectlyReceived(packetDropped)
attr title "packet drop: incorrectly received, count"
scalar MobileHttpNetwork.server.ppp[0].ppp packetDropIncorrectlyReceived:sum(packetBytes) 0
attr interpolationmode none
attr source packetDropReasonIsIncorrectlyReceived(packetDropped)
attr title "packet drop: incorrectly received, sum(packetBytes)"
scalar MobileHttpNetwork.server.ppp[0].ppp packetDropInterfaceDown:count 0
attr interpolationmode none
attr source packetDropReasonIsInterfaceDown(packetDropped)
attr title "packet drop: interface down, count"
scalar MobileHttpNetwork.server.ppp[0].ppp packetDropInterfaceDown:sum(packetBytes) 0
attr interpolationmode none
attr source packetDropReasonIsInterfaceDown(packetDropped)
attr title "packet drop: interface down, sum(packetBytes)"
par MobileHttpNetwork.server.ppp[0] typename "\"inet.linklayer.ppp.PppInterface\""
par MobileHttpNetwork.server.ppp[0] displayStringTextFormat "\"%a (%i)\\n%m\""
par MobileHttpNetwork.server.ppp[0] recordPcap false
par MobileHttpNetwork.server.ppp[0] numPcapRecorders 0
par MobileHttpNetwork.server.ppp[0] interfaceTableModule "\"MobileHttpNetwork.server.interfaceTable\""
par MobileHttpNetwork.server.ipv4.transportIn.channel typename "\"ned.IdealChannel\""
par MobileHttpNetwork.server.ipv4.up.out[0].channel typename "\"ned.IdealChannel\""
par MobileHttpNetwork.server.ipv4.lp.out[2].channel typename "\"ned.IdealChannel\""
par MobileHttpNetwork.server.ipv4.ifIn.channel typename "\"ned.IdealChannel\""
par MobileHttpNetwork.server.ipv4.configurator typename "\"inet.networklayer.configurator.ipv4.Ipv4NodeConfigurator\""
par MobileHttpNetwork.server.ipv4.configurator interfaceTableModule "\"MobileHttpNetwork.server.interfaceTable\""
par MobileHttpNetwork.server.ipv4.configurator routingTableModule "\"MobileHttpNetwork.server.ipv4.routingTable\""
par MobileHttpNetwork.server.ipv4.configurator networkConfiguratorModule "\"configurator\""
par MobileHttpNetwork.server.ipv4.configurator configureRoutingTable true
par MobileHttpNetwork.server.ipv4.routingTable typename "\"inet.networklayer.ipv4.Ipv4RoutingTable\""
par MobileHttpNetwork.server.ipv4.routingTable interfaceTableModule "\"MobileHttpNetwork.server.interfaceTable\""
par MobileHttpNetwork.server.ipv4.routingTable routerId "\"auto\""
par MobileHttpNetwork.server.ipv4.routingTable netmaskRoutes "\"*\""
par MobileHttpNetwork.server.ipv4.routingTable forwarding false
par MobileHttpNetwork.server.ipv4.routingTable multicastForwarding false
par MobileHttpNetwork.server.ipv4.routingTable useAdminDist false
par MobileHttpNetwork.server.ipv4.routingTable routingFile "\"\""
par MobileHttpNetwork.server.ipv4.natTable typename "\"inet.networklayer.ipv4.Ipv4NatTable\""
par MobileHttpNetwork.server.ipv4.natTable networkProtocolModule "\"^.ip\""
par MobileHttpNetwork.server.ipv4.natTable config "<config/> at content:1"
par MobileHttpNetwork.server.ipv4.up typename "\"inet.common.MessageDispatcher\""
par MobileHttpNetwork.server.ipv4.up displayStringTextFormat "\"processed %p pk (%l)\""
par MobileHttpNetwork.server.ipv4.igmp typename "\"inet.networklayer.ipv4.Igmpv2\""
par MobileHttpNetwork.server.ipv4.igmp interfaceTableModule "\"MobileHttpNetwork.server.interfaceTable\""
par MobileHttpNetwork.server.ipv4.igmp routingTableModule "\"MobileHttpNetwork.server.ipv4.routingTable\""
par MobileHttpNetwork.server.ipv4.igmp crcMode "\"declared\""
attr enum declared,computed
par MobileHttpNetwork.server.ipv4.igmp enabled true
par MobileHttpNetwork.server.ipv4.igmp robustnessVariable 2
par MobileHttpNetwork.server.ipv4.igmp queryInterval 125s
attr unit s
par MobileHttpNetwork.server.ipv4.igmp queryResponseInterval 10s
attr unit s
par MobileHttpNetwork.server.ipv4.igmp groupMembershipInterval 260s
attr unit s
par MobileHttpNetwork.server.ipv4.igmp otherQuerierPresentInterval 255s
attr unit s
par MobileHttpNetwork.server.ipv4.igmp startupQueryInterval 31.25s
attr unit s
par MobileHttpNetwork.server.ipv4.igmp startupQueryCount 2
par MobileHttpNetwork.server.ipv4.igmp lastMemberQueryInterval 1s
attr unit s
par MobileHttpNetwork.server.ipv4.igmp lastMemberQueryCount 2
par MobileHttpNetwork.server.ipv4.igmp unsolicitedReportInterval 10s
attr unit s
par MobileHttpNetwork.server.ipv4.icmp typename "\"inet.networklayer.ipv4.Icmp\""
par MobileHttpNetwork.server.ipv4.icmp interfaceTableModule "\"MobileHttpNetwork.server.interfaceTable\""
par MobileHttpNetwork.server.ipv4.icmp routingTableModule "\"MobileHttpNetwork.server.ipv4.routingTable\""
par MobileHttpNetwork.server.ipv4.icmp crcMode "\"declared\""
attr enum declared,computed
par MobileHttpNetwork.server.ipv4.icmp quoteLength 8B
attr unit B
par MobileHttpNetwork.server.ipv4.mp typename "\"inet.common.MessageDispatcher\""
par MobileHttpNetwork.server.ipv4.mp displayStringTextFormat "\"processed %p pk (%l)\""
par MobileHttpNetwork.server.ipv4.ip typename "\"inet.networklayer.ipv4.Ipv4\""
par MobileHttpNetwork.server.ipv4.ip interfaceTableModule "\"MobileHttpNetwork.server.interfaceTable\""
par MobileHttpNetwork.server.ipv4.ip routingTableModule "\"MobileHttpNetwork.server.ipv4.routingTable\""
par MobileHttpNetwork.server.ipv4.ip arpModule "\"MobileHttpNetwork.server.ipv4.arp\""
par MobileHttpNetwork.server.ipv4.ip icmpModule "\"MobileHttpNetwork.server.ipv4.icmp\""
par MobileHttpNetwork.server.ipv4.ip crcMode "\"declared\""
attr enum declared,computed
par MobileHttpNetwork.server.ipv4.ip timeToLive 32
par MobileHttpNetwork.server.ipv4.ip multicastTimeToLive 32
par MobileHttpNetwork.server.ipv4.ip fragmentTimeout 60s
attr unit s
par MobileHttpNetwork.server.ipv4.ip limitedBroadcast false
par MobileHttpNetwork.server.ipv4.ip directBroadcastInterfaces "\"\""
scalar MobileHttpNetwork.server.ipv4.ip packetDropAddressResolutionFailed:count 0
attr interpolationmode none
attr source packetDropReasonIsAddressResolutionFailed(packetDropped)
attr title "packet drop: address resolution failed, count"
scalar MobileHttpNetwork.server.ipv4.ip packetDropAddressResolutionFailed:sum(packetBytes) 0
attr interpolationmode none
attr source packetDropReasonIsAddressResolutionFailed(packetDropped)
attr title "packet drop: address resolution failed, sum(packetBytes)"
scalar MobileHttpNetwork.server.ipv4.ip packetDropHopLimitReached:count 0
attr interpolationmode none
attr source packetDropReasonIsHopLimitReached(packetDropped)
attr title "packet drop: hop limit reached, count"
scalar MobileHttpNetwork.server.ipv4.ip packetDropHopLimitReached:sum(packetBytes) 0
attr interpolationmode none
attr source packetDropReasonIsHopLimitReached(packetDropped)
attr title "packet drop: hop limit reached, sum(packetBytes)"
scalar MobileHttpNetwork.server.ipv4.ip packetDropForwardingDisabled:count 0
attr interpolationmode none
attr source packetDropReasonIsForwardingDisabled(packetDropped)
attr title "packet drop: forwarding disabled, count"
scalar MobileHttpNetwork.server.ipv4.ip packetDropForwardingDisabled:sum(packetBytes) 0
attr interpolationmode none
attr source packetDropReasonIsForwardingDisabled(packetDropped)
attr title "packet drop: forwarding disabled, sum(packetBytes)"
scalar MobileHttpNetwork.server.ipv4.ip packetDropNoInterfaceFound:count 0
attr interpolationmode none
attr source packetDropReasonIsNoInterfaceFound(packetDropped)
attr title "packet drop: no interface found, count"
scalar MobileHttpNetwork.server.ipv4.ip packetDropNoInterfaceFound:sum(packetBytes) 0
attr interpolationmode none
attr source packetDropReasonIsNoInterfaceFound(packetDropped)
attr title "packet drop: no interface found, sum(packetBytes)"
scalar MobileHttpNetwork.server.ipv4.ip packetDropNoRouteFound:count 0
attr interpolationmode none
attr source packetDropReasonIsNoRouteFound(packetDropped)
attr title "packet drop: no route found, count"
scalar MobileHttpNetwork.server.ipv4.ip packetDropNoRouteFound:sum(packetBytes) 0
attr interpolationmode none
attr source packetDropReasonIsNoRouteFound(packetDropped)
attr title "packet drop: no route found, sum(packetBytes)"
scalar MobileHttpNetwork.server.ipv4.ip packetDropUndefined:count 0
attr interpolationmode none
attr source packetDropReasonIsUndefined(packetDropped)
attr title "packet drop: undefined, count"
scalar MobileHttpNetwork.server.ipv4.ip packetDropUndefined:sum(packetBytes) 0
attr interpolationmode none
attr source packetDropReasonIsUndefined(packetDropped)
attr title "packet drop: undefined, sum(packetBytes)"
par MobileHttpNetwork.server.ipv4.arp typename "\"inet.networklayer.arp.ipv4.Arp\""
par MobileHttpNetwork.server.ipv4.arp interfaceTableModule "\"MobileHttpNetwork.server.interfaceTable\""
par MobileHttpNetwork.server.ipv4.arp routingTableModule "\"MobileHttpNetwork.server.ipv4.routingTable\""
par MobileHttpNetwork.server.ipv4.arp retryTimeout 1s
attr unit s
par MobileHttpNetwork.server.ipv4.arp retryCount 3
par MobileHttpNetwork.server.ipv4.arp cacheTimeout 100s
attr unit s
par MobileHttpNetwork.server.ipv4.arp proxyArpInterfaces "\"*\""
scalar MobileHttpNetwork.server.ipv4.arp arpResolutionFailed:count 0
attr title "ARP failed resolutions, count"
scalar MobileHttpNetwork.server.ipv4.arp arpResolutionCompleted:count 0
attr title "ARP completed resolutions, count"
scalar MobileHttpNetwork.server.ipv4.arp arpResolutionInitiated:count 0
attr title "ARP initiated resolutions, count"
scalar MobileHttpNetwork.server.ipv4.arp arpReplySent:count 0
attr source arpReplySent
attr title "ARP replies sent, count"
scalar MobileHttpNetwork.server.ipv4.arp arpReplySent:sum(packetBytes) 0
attr source arpReplySent
attr title "ARP replies sent, sum(packetBytes)"
scalar MobileHttpNetwork.server.ipv4.arp arpRequestSent:count 0
attr source arpRequestSent
attr title "ARP request sent, count"
scalar MobileHttpNetwork.server.ipv4.arp arpRequestSent:sum(packetBytes) 0
attr source arpRequestSent
attr title "ARP request sent, sum(packetBytes)"
par MobileHttpNetwork.server.ipv4.lp typename "\"inet.common.MessageDispatcher\""
par MobileHttpNetwork.server.ipv4.lp displayStringTextFormat "\"processed %p pk (%l)\""
par MobileHttpNetwork.server.ipv4 typename "\"inet.networklayer.ipv4.Ipv4NetworkLayer\""
par MobileHttpNetwork.server.ipv4 forwarding false
par MobileHttpNetwork.server.ipv4 multicastForwarding false
par MobileHttpNetwork.server.ipv4 interfaceTableModule "\"MobileHttpNetwork.server.interfaceTable\""
par MobileHttpNetwork.server.ipv4 displayStringTextFormat "\"%i\""
par MobileHttpNetwork.server.nl typename "\"inet.common.MessageDispatcher\""
par MobileHttpNetwork.server.nl displayStringTextFormat "\"processed %p pk (%l)\""
par MobileHttpNetwork.server.udp typename "\"inet.transportlayer.udp.Udp\""
par MobileHttpNetwork.server.udp interfaceTableModule "\"MobileHttpNetwork.server.interfaceTable\""
par MobileHttpNetwork.server.udp icmpModule "\"^.ipv4.icmp\""
par MobileHttpNetwork.server.udp icmpv6Module "\"^.ipv6.icmpv6\""
par MobileHttpNetwork.server.udp crcMode "\"declared\""
attr enum disabled,declared,computed
scalar MobileHttpNetwork.server.udp packetReceived:count 0
attr interpolationmode none
attr source packetReceived
attr title "packets received, count"
scalar MobileHttpNetwork.server.udp packetReceived:sum(packetBytes) 0
attr interpolationmode none
attr source packetReceived
attr title "packets received, sum(packetBytes)"
scalar MobileHttpNetwork.server.udp packetSent:count 0
attr interpolationmode none
attr source packetSent
attr title "packets sent, count"
scalar MobileHttpNetwork.server.udp packetSent:sum(packetBytes) 0
attr interpolationmode none
attr source packetSent
attr title "packets sent, sum(packetBytes)"
scalar MobileHttpNetwork.server.udp passedUpPk:count 0
attr interpolationmode none
attr source packetSentToUpper
attr title "packets passed up, count"
scalar MobileHttpNetwork.server.udp droppedPkWrongPort:count 0
attr interpolationmode none
attr source packetDropReasonIsNoPortFound(packetDropped)
attr title "packets dropped (wrong port), count"
scalar MobileHttpNetwork.server.udp droppedPkBadChecksum:count 0
attr interpolationmode none
attr source packetDropReasonIsIncorrectlyReceived(packetDropped)
attr title "packets dropped (checksum error), count"
par MobileHttpNetwork.server.tcp.conn-0 typename "\"inet.transportlayer.tcp.TcpConnection\""
par MobileHttpNetwork.server.tcp typename "\"inet.transportlayer.tcp.Tcp\""
par MobileHttpNetwork.server.tcp crcMode "\"declared\""
attr enum declared,computed
par MobileHttpNetwork.server.tcp advertisedWindow 14336
par MobileHttpNetwork.server.tcp delayedAcksEnabled false
par MobileHttpNetwork.server.tcp nagleEnabled true
par MobileHttpNetwork.server.tcp limitedTransmitEnabled false
par MobileHttpNetwork.server.tcp increasedIWEnabled false
par MobileHttpNetwork.server.tcp sackSupport false
par MobileHttpNetwork.server.tcp windowScalingSupport false
par MobileHttpNetwork.server.tcp windowScalingFactor -1
par MobileHttpNetwork.server.tcp timestampSupport false
par MobileHttpNetwork.server.tcp mss 1024
par MobileHttpNetwork.server.tcp msl 120s
attr unit s
par MobileHttpNetwork.server.tcp tcpAlgorithmClass "\"TcpReno\""
attr enum TcpVegas,TcpWestwood,TcpNewReno,TcpReno,TcpTahoe,TcpNoCongestionControl
par MobileHttpNetwork.server.tcp useDataNotification false
par MobileHttpNetwork.server.tcp dupthresh 3
par MobileHttpNetwork.server.tcp initialSsthresh 4294967295
par MobileHttpNetwork.server.tcp stopOperationExtraTime 0s
attr unit s
par MobileHttpNetwork.server.tcp stopOperationTimeout 2s
attr unit s
par MobileHttpNetwork.server.tcp ecnWillingness false
par MobileHttpNetwork.server.tcp dctcpGamma 0.0625
par MobileHttpNetwork.server.tn typename "\"inet.common.MessageDispatcher\""
par MobileHttpNetwork.server.tn displayStringTextFormat "\"processed %p pk (%l)\""
par MobileHttpNetwork.server.app[0] typename "\"inet.applications.httptools.server.HttpServer\""
par MobileHttpNetwork.server.app[0] hostName "\"www.single.org\""
par MobileHttpNetwork.server.app[0] port 80
par MobileHttpNetwork.server.app[0] httpProtocol 11
par MobileHttpNetwork.server.app[0] logFile "\"\""
par MobileHttpNetwork.server.app[0] siteDefinition "\"\""
par MobileHttpNetwork.server.app[0] activationTime 0s
attr unit s
par MobileHttpNetwork.server.app[0] config "<server-profile id=\"normal\">...</server-profile> at /home/chris/Documents/STUDIA/Praca_mgr/Symulacje/v2x-mec/omnet/v2x-sim/simulations/mobile_web/server_cfg.xml:12"
par MobileHttpNetwork.server.app[0] httpControllerModule "\"httpController\""
scalar MobileHttpNetwork.server.app[0] HTML.served 0
scalar MobileHttpNetwork.server.app[0] images.served 0
scalar MobileHttpNetwork.server.app[0] text.served 0
scalar MobileHttpNetwork.server.app[0] bad.requests 0
scalar MobileHttpNetwork.server.app[0] sock.opened 0
scalar MobileHttpNetwork.server.app[0] sock.broken 0
par MobileHttpNetwork.server.at typename "\"inet.common.MessageDispatcher\""
par MobileHttpNetwork.server.at displayStringTextFormat "\"processed %p pk (%l)\""
par MobileHttpNetwork.server typename "\"inet.node.inet.StandardHost\""
par MobileHttpNetwork.server hasStatus false
par MobileHttpNetwork.server osgModel "\"\""
par MobileHttpNetwork.server osgModelColor "\"\""
par MobileHttpNetwork.server canvasImage "\"\""
par MobileHttpNetwork.server canvasImageColor "\"\""
par MobileHttpNetwork.server recordPcap false
par MobileHttpNetwork.server numPcapRecorders 0
par MobileHttpNetwork.server numLoInterfaces 1
par MobileHttpNetwork.server numWlanInterfaces 0
par MobileHttpNetwork.server numEthInterfaces 0
par MobileHttpNetwork.server numPppInterfaces 0
par MobileHttpNetwork.server numTunInterfaces 0
par MobileHttpNetwork.server numVirtInterfaces 0
par MobileHttpNetwork.server hasIpv4 true
par MobileHttpNetwork.server hasIpv6 false
par MobileHttpNetwork.server hasGn false
par MobileHttpNetwork.server forwarding false
par MobileHttpNetwork.server multicastForwarding false
par MobileHttpNetwork.server hasUdp true
par MobileHttpNetwork.server hasTcp true
par MobileHttpNetwork.server hasSctp false
par MobileHttpNetwork.server numApps 1
par MobileHttpNetwork.configurator typename "\"inet.networklayer.configurator.ipv4.Ipv4NetworkConfigurator\""
par MobileHttpNetwork.configurator minLinkWeight 0.001
par MobileHttpNetwork.configurator configureIsolatedNetworksSeparatly false
par MobileHttpNetwork.configurator config "<config>...</config> at /home/chris/Documents/STUDIA/Praca_mgr/Symulacje/v2x-mec/omnet/v2x-sim/simulations/mobile_web/config.xml:1"
par MobileHttpNetwork.configurator assignAddresses true
par MobileHttpNetwork.configurator assignUniqueAddresses true
par MobileHttpNetwork.configurator assignDisjunctSubnetAddresses true
par MobileHttpNetwork.configurator addStaticRoutes true
par MobileHttpNetwork.configurator addDefaultRoutes true
par MobileHttpNetwork.configurator addSubnetRoutes true
par MobileHttpNetwork.configurator addDirectRoutes true
par MobileHttpNetwork.configurator optimizeRoutes true
par MobileHttpNetwork.configurator dumpTopology false
par MobileHttpNetwork.configurator dumpLinks false
par MobileHttpNetwork.configurator dumpAddresses false
par MobileHttpNetwork.configurator dumpRoutes false
par MobileHttpNetwork.configurator dumpConfig "\"\""
par MobileHttpNetwork.binder typename "\"simu5g.common.binder.Binder\""
par MobileHttpNetwork.binder blerShift 5
par MobileHttpNetwork.binder maxDataRatePerRb 1.16Mbps
attr unit Mbps
par MobileHttpNetwork.binder printTrafficGeneratorConfig false
par MobileHttpNetwork.carrierAggregation.componentCarrier[0] typename "\"simu5g.common.carrierAggregation.ComponentCarrier\""
par MobileHttpNetwork.carrierAggregation.componentCarrier[0] carrierFrequency 2GHz
attr unit GHz
par MobileHttpNetwork.carrierAggregation.componentCarrier[0] numBands 6
par MobileHttpNetwork.carrierAggregation.componentCarrier[0] numerologyIndex 0
par MobileHttpNetwork.carrierAggregation.componentCarrier[0] useTdd false
par MobileHttpNetwork.carrierAggregation.componentCarrier[0] tddNumSymbolsDl 7
par MobileHttpNetwork.carrierAggregation.componentCarrier[0] tddNumSymbolsUl 7
par MobileHttpNetwork.carrierAggregation typename "\"simu5g.common.carrierAggregation.CarrierAggregation\""
par MobileHttpNetwork.carrierAggregation numComponentCarriers 1
par MobileHttpNetwork.bgCell.mobility typename "\"inet.mobility.static.StationaryMobility\""
par MobileHttpNetwork.bgCell.mobility subjectModule "\"^\""
par MobileHttpNetwork.bgCell.mobility coordinateSystemModule "\"\""
par MobileHttpNetwork.bgCell.mobility displayStringTextFormat "\"p: %p\\nv: %v\""
par MobileHttpNetwork.bgCell.mobility updateDisplayString true
par MobileHttpNetwork.bgCell.mobility constraintAreaMinX "-inf m"
attr unit m
par MobileHttpNetwork.bgCell.mobility constraintAreaMinY "-inf m"
attr unit m
par MobileHttpNetwork.bgCell.mobility constraintAreaMinZ "-inf m"
attr unit m
par MobileHttpNetwork.bgCell.mobility constraintAreaMaxX "inf m"
attr unit m
par MobileHttpNetwork.bgCell.mobility constraintAreaMaxY "inf m"
attr unit m
par MobileHttpNetwork.bgCell.mobility constraintAreaMaxZ "inf m"
attr unit m
par MobileHttpNetwork.bgCell.mobility initialX "nan m"
attr unit m
par MobileHttpNetwork.bgCell.mobility initialY "nan m"
attr unit m
par MobileHttpNetwork.bgCell.mobility initialZ 0m
attr unit m
par MobileHttpNetwork.bgCell.mobility initialLatitude "nan deg"
attr unit deg
par MobileHttpNetwork.bgCell.mobility initialLongitude "nan deg"
attr unit deg
par MobileHttpNetwork.bgCell.mobility initialAltitude 0m
attr unit m
par MobileHttpNetwork.bgCell.mobility initialHeading 0deg
attr unit deg
par MobileHttpNetwork.bgCell.mobility initialElevation 0deg
attr unit deg
par MobileHttpNetwork.bgCell.mobility initialBank 0deg
attr unit deg
par MobileHttpNetwork.bgCell.mobility initFromDisplayString true
par MobileHttpNetwork.bgCell.mobility updateFromDisplayString true
par MobileHttpNetwork.bgCell.bgChannelModel typename "\"simu5g.nodes.backgroundCell.BackgroundCellChannelModel\""
par MobileHttpNetwork.bgCell.bgChannelModel shadowing true
par MobileHttpNetwork.bgCell.bgChannelModel scenario "\"URBAN_MACROCELL\""
par MobileHttpNetwork.bgCell.bgChannelModel nodeb_height 25
par MobileHttpNetwork.bgCell.bgChannelModel building_height 20
par MobileHttpNetwork.bgCell.bgChannelModel inside_building false
par MobileHttpNetwork.bgCell.bgChannelModel street_wide 20
par MobileHttpNetwork.bgCell.bgChannelModel ue_height 1.5
par MobileHttpNetwork.bgCell.bgChannelModel tolerateMaxDistViolation false
par MobileHttpNetwork.bgCell.bgChannelModel correlation_distance 50
par MobileHttpNetwork.bgCell.bgChannelModel antennaGainUe 0
par MobileHttpNetwork.bgCell.bgChannelModel antennGainEnB 18
par MobileHttpNetwork.bgCell.bgChannelModel antennGainMicro 5
par MobileHttpNetwork.bgCell.bgChannelModel thermalNoise -104.5
par MobileHttpNetwork.bgCell.bgChannelModel ue_noise_figure 7
par MobileHttpNetwork.bgCell.bgChannelModel bs_noise_figure 5
par MobileHttpNetwork.bgCell.bgChannelModel cable_loss 2
par MobileHttpNetwork.bgCell.bgChannelModel dynamic_los false
par MobileHttpNetwork.bgCell.bgChannelModel fixed_los false
par MobileHttpNetwork.bgCell.bgChannelModel fading true
par MobileHttpNetwork.bgCell.bgChannelModel fading_type "\"JAKES\""
par MobileHttpNetwork.bgCell.bgChannelModel fading_paths 6
par MobileHttpNetwork.bgCell.bgChannelModel delay_rms 3.63e-07
par MobileHttpNetwork.bgCell.bgChannelModel bgCell_interference true
par MobileHttpNetwork.bgCell.bgChannelModel downlink_interference true
par MobileHttpNetwork.bgCell.bgChannelModel uplink_interference true
par MobileHttpNetwork.bgCell.bgScheduler typename "\"simu5g.nodes.backgroundCell.BackgroundScheduler\""
par MobileHttpNetwork.bgCell.bgScheduler txPower 46
par MobileHttpNetwork.bgCell.bgScheduler txDirection "\"OMNI\""
par MobileHttpNetwork.bgCell.bgScheduler txAngle 0
par MobileHttpNetwork.bgCell.bgScheduler isNr false
par MobileHttpNetwork.bgCell.bgScheduler numerologyIndex 0
par MobileHttpNetwork.bgCell.bgScheduler carrierFrequency 2GHz
attr unit GHz
par MobileHttpNetwork.bgCell.bgScheduler numBands 6
scalar MobileHttpNetwork.bgCell.bgScheduler bgAvgServedBlocksUl:mean 0
attr source bgAvgServedBlocksUl
attr title "Average UL served blocks for background cells, mean"
attr unit ""
scalar MobileHttpNetwork.bgCell.bgScheduler bgAvgServedBlocksDl:mean 0
attr source bgAvgServedBlocksDl
attr title "Average DL served blocks for background cells, mean"
attr unit ""
par MobileHttpNetwork.bgCell.bgTrafficGenerator.manager typename "\"simu5g.nodes.backgroundCell.BackgroundCellTrafficManager\""
par MobileHttpNetwork.bgCell.bgTrafficGenerator typename "\"simu5g.stack.backgroundTrafficGenerator.BackgroundTrafficGenerator\""
par MobileHttpNetwork.bgCell.bgTrafficGenerator numBgUes 0
par MobileHttpNetwork.bgCell.bgTrafficGenerator bgTrafficManagerType "\"BackgroundCellTrafficManager\""
par MobileHttpNetwork.bgCell.bgTrafficGenerator enablePeriodicCqiUpdate true
par MobileHttpNetwork.bgCell.bgTrafficGenerator useProbabilisticCqi false
par MobileHttpNetwork.bgCell.bgTrafficGenerator computeAvgInterference false
par MobileHttpNetwork.bgCell typename "\"simu5g.nodes.backgroundCell.BackgroundCell\""
par MobileHttpNetwork.bgCell bgTrafficManagerType "\"BackgroundCellTrafficManager\""
par MobileHttpNetwork.ue.interfaceTable typename "\"inet.networklayer.common.InterfaceTable\""
par MobileHttpNetwork.ue.interfaceTable displayAddresses false
par MobileHttpNetwork.ue.mobility typename "\"inet.mobility.static.StationaryMobility\""
par MobileHttpNetwork.ue.mobility subjectModule "\"^\""
par MobileHttpNetwork.ue.mobility coordinateSystemModule "\"\""
par MobileHttpNetwork.ue.mobility displayStringTextFormat "\"p: %p\\nv: %v\""
par MobileHttpNetwork.ue.mobility updateDisplayString true
par MobileHttpNetwork.ue.mobility constraintAreaMinX "-inf m"
attr unit m
par MobileHttpNetwork.ue.mobility constraintAreaMinY "-inf m"
attr unit m
par MobileHttpNetwork.ue.mobility constraintAreaMinZ "-inf m"
attr unit m
par MobileHttpNetwork.ue.mobility constraintAreaMaxX "inf m"
attr unit m
par MobileHttpNetwork.ue.mobility constraintAreaMaxY "inf m"
attr unit m
par MobileHttpNetwork.ue.mobility constraintAreaMaxZ "inf m"
attr unit m
par MobileHttpNetwork.ue.mobility initialX "nan m"
attr unit m
par MobileHttpNetwork.ue.mobility initialY "nan m"
attr unit m
par MobileHttpNetwork.ue.mobility initialZ 0m
attr unit m
par MobileHttpNetwork.ue.mobility initialLatitude "nan deg"
attr unit deg
par MobileHttpNetwork.ue.mobility initialLongitude "nan deg"
attr unit deg
par MobileHttpNetwork.ue.mobility initialAltitude 0m
attr unit m
par MobileHttpNetwork.ue.mobility initialHeading 0deg
attr unit deg
par MobileHttpNetwork.ue.mobility initialElevation 0deg
attr unit deg
par MobileHttpNetwork.ue.mobility initialBank 0deg
attr unit deg
par MobileHttpNetwork.ue.mobility initFromDisplayString true
par MobileHttpNetwork.ue.mobility updateFromDisplayString true
par MobileHttpNetwork.ue.app[0] typename "\"inet.applications.httptools.browser.HttpBrowser\""
par MobileHttpNetwork.ue.app[0] httpProtocol 11
par MobileHttpNetwork.ue.app[0] logFile "\"\""
par MobileHttpNetwork.ue.app[0] scriptFile "\"\""
par MobileHttpNetwork.ue.app[0] activationTime 0s
attr unit s
par MobileHttpNetwork.ue.app[0] config "<user-profile id=\"normal\">...</user-profile> at /home/chris/Documents/STUDIA/Praca_mgr/Symulacje/v2x-mec/omnet/v2x-sim/simulations/mobile_web/browser_cfg.xml:23"
par MobileHttpNetwork.ue.app[0] httpControllerModule "\"httpController\""
scalar MobileHttpNetwork.ue.app[0] session.count 0
scalar MobileHttpNetwork.ue.app[0] html.requested 0
scalar MobileHttpNetwork.ue.app[0] html.received 0
scalar MobileHttpNetwork.ue.app[0] html.errors 0
scalar MobileHttpNetwork.ue.app[0] html.image.requested 0
scalar MobileHttpNetwork.ue.app[0] html.image.received 0
scalar MobileHttpNetwork.ue.app[0] html.text.requested 0
scalar MobileHttpNetwork.ue.app[0] html.text.received 0
scalar MobileHttpNetwork.ue.app[0] sock.opened 0
scalar MobileHttpNetwork.ue.app[0] sock.broken 0
par MobileHttpNetwork.ue.udp typename "\"inet.transportlayer.udp.Udp\""
par MobileHttpNetwork.ue.udp interfaceTableModule "\"MobileHttpNetwork.ue.interfaceTable\""
par MobileHttpNetwork.ue.udp icmpModule "\"^.ipv4.icmp\""
par MobileHttpNetwork.ue.udp icmpv6Module "\"^.ipv6.icmpv6\""
par MobileHttpNetwork.ue.udp crcMode "\"declared\""
attr enum disabled,declared,computed
scalar MobileHttpNetwork.ue.udp packetReceived:count 0
attr interpolationmode none
attr source packetReceived
attr title "packets received, count"
scalar MobileHttpNetwork.ue.udp packetReceived:sum(packetBytes) 0
attr interpolationmode none
attr source packetReceived
attr title "packets received, sum(packetBytes)"
scalar MobileHttpNetwork.ue.udp packetSent:count 0
attr interpolationmode none
attr source packetSent
attr title "packets sent, count"
scalar MobileHttpNetwork.ue.udp packetSent:sum(packetBytes) 0
attr interpolationmode none
attr source packetSent
attr title "packets sent, sum(packetBytes)"
scalar MobileHttpNetwork.ue.udp passedUpPk:count 0
attr interpolationmode none
attr source packetSentToUpper
attr title "packets passed up, count"
scalar MobileHttpNetwork.ue.udp droppedPkWrongPort:count 0
attr interpolationmode none
attr source packetDropReasonIsNoPortFound(packetDropped)
attr title "packets dropped (wrong port), count"
scalar MobileHttpNetwork.ue.udp droppedPkBadChecksum:count 0
attr interpolationmode none
attr source packetDropReasonIsIncorrectlyReceived(packetDropped)
attr title "packets dropped (checksum error), count"
par MobileHttpNetwork.ue.tcp typename "\"inet.transportlayer.tcp.Tcp\""
par MobileHttpNetwork.ue.tcp crcMode "\"declared\""
attr enum declared,computed
par MobileHttpNetwork.ue.tcp advertisedWindow 14336
par MobileHttpNetwork.ue.tcp delayedAcksEnabled false
par MobileHttpNetwork.ue.tcp nagleEnabled true
par MobileHttpNetwork.ue.tcp limitedTransmitEnabled false
par MobileHttpNetwork.ue.tcp increasedIWEnabled false
par MobileHttpNetwork.ue.tcp sackSupport false
par MobileHttpNetwork.ue.tcp windowScalingSupport false
par MobileHttpNetwork.ue.tcp windowScalingFactor -1
par MobileHttpNetwork.ue.tcp timestampSupport false
par MobileHttpNetwork.ue.tcp mss 1024
par MobileHttpNetwork.ue.tcp msl 120s
attr unit s
par MobileHttpNetwork.ue.tcp tcpAlgorithmClass "\"TcpReno\""
attr enum TcpVegas,TcpWestwood,TcpNewReno,TcpReno,TcpTahoe,TcpNoCongestionControl
par MobileHttpNetwork.ue.tcp useDataNotification false
par MobileHttpNetwork.ue.tcp dupthresh 3
par MobileHttpNetwork.ue.tcp initialSsthresh 4294967295
par MobileHttpNetwork.ue.tcp stopOperationExtraTime 0s
attr unit s
par MobileHttpNetwork.ue.tcp stopOperationTimeout 2s
attr unit s
par MobileHttpNetwork.ue.tcp ecnWillingness false
par MobileHttpNetwork.ue.tcp dctcpGamma 0.0625
par MobileHttpNetwork.ue.ipv4.transportIn.channel typename "\"ned.IdealChannel\""
par MobileHttpNetwork.ue.ipv4.up.out[0].channel typename "\"ned.IdealChannel\""
par MobileHttpNetwork.ue.ipv4.lp.out[2].channel typename "\"ned.IdealChannel\""
par MobileHttpNetwork.ue.ipv4.ifIn.channel typename "\"ned.IdealChannel\""
par MobileHttpNetwork.ue.ipv4.configurator typename "\"inet.networklayer.configurator.ipv4.Ipv4NodeConfigurator\""
par MobileHttpNetwork.ue.ipv4.configurator interfaceTableModule "\"MobileHttpNetwork.ue.interfaceTable\""
par MobileHttpNetwork.ue.ipv4.configurator routingTableModule "\"MobileHttpNetwork.ue.ipv4.routingTable\""
par MobileHttpNetwork.ue.ipv4.configurator networkConfiguratorModule "\"configurator\""
par MobileHttpNetwork.ue.ipv4.configurator configureRoutingTable true
par MobileHttpNetwork.ue.ipv4.routingTable typename "\"inet.networklayer.ipv4.Ipv4RoutingTable\""
par MobileHttpNetwork.ue.ipv4.routingTable interfaceTableModule "\"MobileHttpNetwork.ue.interfaceTable\""
par MobileHttpNetwork.ue.ipv4.routingTable routerId "\"auto\""
par MobileHttpNetwork.ue.ipv4.routingTable netmaskRoutes "\"*\""
par MobileHttpNetwork.ue.ipv4.routingTable forwarding false
par MobileHttpNetwork.ue.ipv4.routingTable multicastForwarding false
par MobileHttpNetwork.ue.ipv4.routingTable useAdminDist false
par MobileHttpNetwork.ue.ipv4.routingTable routingFile "\"\""
par MobileHttpNetwork.ue.ipv4.natTable typename "\"inet.networklayer.ipv4.Ipv4NatTable\""
par MobileHttpNetwork.ue.ipv4.natTable networkProtocolModule "\"^.ip\""
par MobileHttpNetwork.ue.ipv4.natTable config "<config/> at content:1"
par MobileHttpNetwork.ue.ipv4.up typename "\"inet.common.MessageDispatcher\""
par MobileHttpNetwork.ue.ipv4.up displayStringTextFormat "\"processed %p pk (%l)\""
par MobileHttpNetwork.ue.ipv4.igmp typename "\"inet.networklayer.ipv4.Igmpv2\""
par MobileHttpNetwork.ue.ipv4.igmp interfaceTableModule "\"MobileHttpNetwork.ue.interfaceTable\""
par MobileHttpNetwork.ue.ipv4.igmp routingTableModule "\"MobileHttpNetwork.ue.ipv4.routingTable\""
par MobileHttpNetwork.ue.ipv4.igmp crcMode "\"declared\""
attr enum declared,computed
par MobileHttpNetwork.ue.ipv4.igmp enabled true
par MobileHttpNetwork.ue.ipv4.igmp robustnessVariable 2
par MobileHttpNetwork.ue.ipv4.igmp queryInterval 125s
attr unit s
par MobileHttpNetwork.ue.ipv4.igmp queryResponseInterval 10s
attr unit s
par MobileHttpNetwork.ue.ipv4.igmp groupMembershipInterval 260s
attr unit s
par MobileHttpNetwork.ue.ipv4.igmp otherQuerierPresentInterval 255s
attr unit s
par MobileHttpNetwork.ue.ipv4.igmp startupQueryInterval 31.25s
attr unit s
par MobileHttpNetwork.ue.ipv4.igmp startupQueryCount 2
par MobileHttpNetwork.ue.ipv4.igmp lastMemberQueryInterval 1s
attr unit s
par MobileHttpNetwork.ue.ipv4.igmp lastMemberQueryCount 2
par MobileHttpNetwork.ue.ipv4.igmp unsolicitedReportInterval 10s
attr unit s
par MobileHttpNetwork.ue.ipv4.icmp typename "\"inet.networklayer.ipv4.Icmp\""
par MobileHttpNetwork.ue.ipv4.icmp interfaceTableModule "\"MobileHttpNetwork.ue.interfaceTable\""
par MobileHttpNetwork.ue.ipv4.icmp routingTableModule "\"MobileHttpNetwork.ue.ipv4.routingTable\""
par MobileHttpNetwork.ue.ipv4.icmp crcMode "\"declared\""
attr enum declared,computed
par MobileHttpNetwork.ue.ipv4.icmp quoteLength 8B
attr unit B
par MobileHttpNetwork.ue.ipv4.mp typename "\"inet.common.MessageDispatcher\""
par MobileHttpNetwork.ue.ipv4.mp displayStringTextFormat "\"processed %p pk (%l)\""
par MobileHttpNetwork.ue.ipv4.ip typename "\"inet.networklayer.ipv4.Ipv4\""
par MobileHttpNetwork.ue.ipv4.ip interfaceTableModule "\"MobileHttpNetwork.ue.interfaceTable\""
par MobileHttpNetwork.ue.ipv4.ip routingTableModule "\"MobileHttpNetwork.ue.ipv4.routingTable\""
par MobileHttpNetwork.ue.ipv4.ip arpModule "\"MobileHttpNetwork.ue.ipv4.arp\""
par MobileHttpNetwork.ue.ipv4.ip icmpModule "\"MobileHttpNetwork.ue.ipv4.icmp\""
par MobileHttpNetwork.ue.ipv4.ip crcMode "\"declared\""
attr enum declared,computed
par MobileHttpNetwork.ue.ipv4.ip timeToLive 32
par MobileHttpNetwork.ue.ipv4.ip multicastTimeToLive 32
par MobileHttpNetwork.ue.ipv4.ip fragmentTimeout 60s
attr unit s
par MobileHttpNetwork.ue.ipv4.ip limitedBroadcast false
par MobileHttpNetwork.ue.ipv4.ip directBroadcastInterfaces "\"\""
scalar MobileHttpNetwork.ue.ipv4.ip packetDropAddressResolutionFailed:count 0
attr interpolationmode none
attr source packetDropReasonIsAddressResolutionFailed(packetDropped)
attr title "packet drop: address resolution failed, count"
scalar MobileHttpNetwork.ue.ipv4.ip packetDropAddressResolutionFailed:sum(packetBytes) 0
attr interpolationmode none
attr source packetDropReasonIsAddressResolutionFailed(packetDropped)
attr title "packet drop: address resolution failed, sum(packetBytes)"
scalar MobileHttpNetwork.ue.ipv4.ip packetDropHopLimitReached:count 0
attr interpolationmode none
attr source packetDropReasonIsHopLimitReached(packetDropped)
attr title "packet drop: hop limit reached, count"
scalar MobileHttpNetwork.ue.ipv4.ip packetDropHopLimitReached:sum(packetBytes) 0
attr interpolationmode none
attr source packetDropReasonIsHopLimitReached(packetDropped)
attr title "packet drop: hop limit reached, sum(packetBytes)"
scalar MobileHttpNetwork.ue.ipv4.ip packetDropForwardingDisabled:count 0
attr interpolationmode none
attr source packetDropReasonIsForwardingDisabled(packetDropped)
attr title "packet drop: forwarding disabled, count"
scalar MobileHttpNetwork.ue.ipv4.ip packetDropForwardingDisabled:sum(packetBytes) 0
attr interpolationmode none
attr source packetDropReasonIsForwardingDisabled(packetDropped)
attr title "packet drop: forwarding disabled, sum(packetBytes)"
scalar MobileHttpNetwork.ue.ipv4.ip packetDropNoInterfaceFound:count 0
attr interpolationmode none
attr source packetDropReasonIsNoInterfaceFound(packetDropped)
attr title "packet drop: no interface found, count"
scalar MobileHttpNetwork.ue.ipv4.ip packetDropNoInterfaceFound:sum(packetBytes) 0
attr interpolationmode none
attr source packetDropReasonIsNoInterfaceFound(packetDropped)
attr title "packet drop: no interface found, sum(packetBytes)"
scalar MobileHttpNetwork.ue.ipv4.ip packetDropNoRouteFound:count 0
attr interpolationmode none
attr source packetDropReasonIsNoRouteFound(packetDropped)
attr title "packet drop: no route found, count"
scalar MobileHttpNetwork.ue.ipv4.ip packetDropNoRouteFound:sum(packetBytes) 0
attr interpolationmode none
attr source packetDropReasonIsNoRouteFound(packetDropped)
attr title "packet drop: no route found, sum(packetBytes)"
scalar MobileHttpNetwork.ue.ipv4.ip packetDropUndefined:count 0
attr interpolationmode none
attr source packetDropReasonIsUndefined(packetDropped)
attr title "packet drop: undefined, count"
scalar MobileHttpNetwork.ue.ipv4.ip packetDropUndefined:sum(packetBytes) 0
attr interpolationmode none
attr source packetDropReasonIsUndefined(packetDropped)
attr title "packet drop: undefined, sum(packetBytes)"
par MobileHttpNetwork.ue.ipv4.arp typename "\"inet.networklayer.arp.ipv4.Arp\""
par MobileHttpNetwork.ue.ipv4.arp interfaceTableModule "\"MobileHttpNetwork.ue.interfaceTable\""
par MobileHttpNetwork.ue.ipv4.arp routingTableModule "\"MobileHttpNetwork.ue.ipv4.routingTable\""
par MobileHttpNetwork.ue.ipv4.arp retryTimeout 1s
attr unit s
par MobileHttpNetwork.ue.ipv4.arp retryCount 3
par MobileHttpNetwork.ue.ipv4.arp cacheTimeout 100s
attr unit s
par MobileHttpNetwork.ue.ipv4.arp proxyArpInterfaces "\"*\""
scalar MobileHttpNetwork.ue.ipv4.arp arpResolutionFailed:count 0
attr title "ARP failed resolutions, count"
scalar MobileHttpNetwork.ue.ipv4.arp arpResolutionCompleted:count 0
attr title "ARP completed resolutions, count"
scalar MobileHttpNetwork.ue.ipv4.arp arpResolutionInitiated:count 0
attr title "ARP initiated resolutions, count"
scalar MobileHttpNetwork.ue.ipv4.arp arpReplySent:count 0
attr source arpReplySent
attr title "ARP replies sent, count"
scalar MobileHttpNetwork.ue.ipv4.arp arpReplySent:sum(packetBytes) 0
attr source arpReplySent
attr title "ARP replies sent, sum(packetBytes)"
scalar MobileHttpNetwork.ue.ipv4.arp arpRequestSent:count 0
attr source arpRequestSent
attr title "ARP request sent, count"
scalar MobileHttpNetwork.ue.ipv4.arp arpRequestSent:sum(packetBytes) 0
attr source arpRequestSent
attr title "ARP request sent, sum(packetBytes)"
par MobileHttpNetwork.ue.ipv4.lp typename "\"inet.common.MessageDispatcher\""
par MobileHttpNetwork.ue.ipv4.lp displayStringTextFormat "\"processed %p pk (%l)\""
par MobileHttpNetwork.ue.ipv4 typename "\"inet.networklayer.ipv4.Ipv4NetworkLayer\""
par MobileHttpNetwork.ue.ipv4 forwarding false
par MobileHttpNetwork.ue.ipv4 multicastForwarding false
par MobileHttpNetwork.ue.ipv4 interfaceTableModule "\"MobileHttpNetwork.ue.interfaceTable\""
par MobileHttpNetwork.ue.ipv4 displayStringTextFormat "\"%i\""
par MobileHttpNetwork.ue.lo[0].upperLayerIn.channel typename "\"ned.IdealChannel\""
par MobileHttpNetwork.ue.lo[0].lo.upperLayerOut.channel typename "\"ned.IdealChannel\""
par MobileHttpNetwork.ue.lo[0].lo typename "\"inet.linklayer.loopback.Loopback\""
par MobileHttpNetwork.ue.lo[0].lo interfaceTableModule "\"MobileHttpNetwork.ue.interfaceTable\""
par MobileHttpNetwork.ue.lo[0].lo mtu 4470B
attr unit B
scalar MobileHttpNetwork.ue.lo[0].lo rcvdPkFromHl:count 0
attr interpolationmode none
attr source packetReceivedFromUpper
attr title "packets received from higher layer, count"
scalar MobileHttpNetwork.ue.lo[0].lo rcvdPkFromHl:sum(packetBytes) 0
attr interpolationmode none
attr source packetReceivedFromUpper
attr title "packets received from higher layer, sum(packetBytes)"
scalar MobileHttpNetwork.ue.lo[0].lo passedUpPk:count 0
attr interpolationmode none
attr source packetSentToUpper
attr title "packets passed to higher layer, count"
scalar MobileHttpNetwork.ue.lo[0].lo passedUpPk:sum(packetBytes) 0
attr interpolationmode none
attr source packetSentToUpper
attr title "packets passed to higher layer, sum(packetBytes)"
par MobileHttpNetwork.ue.lo[0] typename "\"inet.linklayer.loopback.LoopbackInterface\""
par MobileHttpNetwork.ue.lo[0] displayStringTextFormat "\"%a (%i)\\n%m\""
par MobileHttpNetwork.ue.lo[0] recordPcap false
par MobileHttpNetwork.ue.lo[0] numPcapRecorders 0
par MobileHttpNetwork.ue.lo[0] interfaceTableModule "\"MobileHttpNetwork.ue.interfaceTable\""
par MobileHttpNetwork.ue.cellularNic.ip2nic.upperLayerOut.channel typename "\"ned.DelayChannel\""
par MobileHttpNetwork.ue.cellularNic.ip2nic.upperLayerOut.channel disabled false
par MobileHttpNetwork.ue.cellularNic.ip2nic.upperLayerOut.channel delay 0s
attr unit s
par MobileHttpNetwork.ue.cellularNic.upperLayerIn.channel typename "\"ned.DelayChannel\""
par MobileHttpNetwork.ue.cellularNic.upperLayerIn.channel disabled false
par MobileHttpNetwork.ue.cellularNic.upperLayerIn.channel delay 0s
attr unit s
par MobileHttpNetwork.ue.cellularNic.ip2nic typename "\"simu5g.stack.ip2nic.IP2Nic\""
par MobileHttpNetwork.ue.cellularNic.ip2nic nodeType "\"UE\""
par MobileHttpNetwork.ue.cellularNic.ip2nic interfaceTableModule "\"MobileHttpNetwork.ue.interfaceTable\""
par MobileHttpNetwork.ue.cellularNic.ip2nic routingTableModule "\"^.ipv4.routingTable\""
par MobileHttpNetwork.ue.cellularNic.pdcpRrc typename "\"simu5g.stack.pdcp_rrc.NRPdcpRrcUe\""
par MobileHttpNetwork.ue.cellularNic.pdcpRrc headerCompressedSize -1B
attr unit B
par MobileHttpNetwork.ue.cellularNic.pdcpRrc conversationalRlc 1
attr enum TM,UM,AM,UNKNOWN_RLC_TYPE
par MobileHttpNetwork.ue.cellularNic.pdcpRrc streamingRlc 1
attr enum TM,UM,AM,UNKNOWN_RLC_TYPE
par MobileHttpNetwork.ue.cellularNic.pdcpRrc interactiveRlc 1
attr enum TM,UM,AM,UNKNOWN_RLC_TYPE
par MobileHttpNetwork.ue.cellularNic.pdcpRrc backgroundRlc 1
attr enum TM,UM,AM,UNKNOWN_RLC_TYPE
scalar MobileHttpNetwork.ue.cellularNic.pdcpRrc sentPacketToLowerLayer:count 0
attr interpolationmode none
attr source sentPacketToLowerLayer
scalar MobileHttpNetwork.ue.cellularNic.pdcpRrc sentPacketToLowerLayer:sum(packetBytes) 0
attr interpolationmode none
attr source sentPacketToLowerLayer
scalar MobileHttpNetwork.ue.cellularNic.pdcpRrc sentPacketToUpperLayer:count 0
attr interpolationmode none
attr source sentPacketToUpperLayer
scalar MobileHttpNetwork.ue.cellularNic.pdcpRrc sentPacketToUpperLayer:sum(packetBytes) 0
attr interpolationmode none
attr source sentPacketToUpperLayer
scalar MobileHttpNetwork.ue.cellularNic.pdcpRrc receivedPacketFromLowerLayer:count 0
attr interpolationmode none
attr source receivedPacketFromLowerLayer
scalar MobileHttpNetwork.ue.cellularNic.pdcpRrc receivedPacketFromLowerLayer:sum(packetBytes) 0
attr interpolationmode none
attr source receivedPacketFromLowerLayer
scalar MobileHttpNetwork.ue.cellularNic.pdcpRrc receivedPacketFromUpperLayer:count 0
attr interpolationmode none
attr source receivedPacketFromUpperLayer
scalar MobileHttpNetwork.ue.cellularNic.pdcpRrc receivedPacketFromUpperLayer:sum(packetBytes) 0
attr interpolationmode none
attr source receivedPacketFromUpperLayer
par MobileHttpNetwork.ue.cellularNic.rlc.tm typename "\"simu5g.stack.rlc.LteRlcTm\""
par MobileHttpNetwork.ue.cellularNic.rlc.tm queueSize 2097152B
attr unit B
scalar MobileHttpNetwork.ue.cellularNic.rlc.tm rlcPacketLossDl:mean -nan
attr source rlcPacketLossDl
attr title "rlc Packet Loss, mean"
attr unit ""
scalar MobileHttpNetwork.ue.cellularNic.rlc.tm rlcPacketLossDl:sum 0
attr source rlcPacketLossDl
attr title "rlc Packet Loss, sum"
attr unit ""
scalar MobileHttpNetwork.ue.cellularNic.rlc.tm rlcPacketLossUl:mean -nan
attr source rlcPacketLossUl
attr title "rlc Packet Loss, mean"
attr unit ""
scalar MobileHttpNetwork.ue.cellularNic.rlc.tm rlcPacketLossUl:sum 0
attr source rlcPacketLossUl
attr title "rlc Packet Loss, sum"
attr unit ""
scalar MobileHttpNetwork.ue.cellularNic.rlc.tm sentPacketToLowerLayer:count 0
attr interpolationmode none
attr source sentPacketToLowerLayer
scalar MobileHttpNetwork.ue.cellularNic.rlc.tm sentPacketToLowerLayer:sum(packetBytes) 0
attr interpolationmode none
attr source sentPacketToLowerLayer
scalar MobileHttpNetwork.ue.cellularNic.rlc.tm sentPacketToUpperLayer:count 0
attr interpolationmode none
attr source sentPacketToUpperLayer
scalar MobileHttpNetwork.ue.cellularNic.rlc.tm sentPacketToUpperLayer:sum(packetBytes) 0
attr interpolationmode none
attr source sentPacketToUpperLayer
scalar MobileHttpNetwork.ue.cellularNic.rlc.tm receivedPacketFromLowerLayer:count 0
attr interpolationmode none
attr source receivedPacketFromLowerLayer
scalar MobileHttpNetwork.ue.cellularNic.rlc.tm receivedPacketFromLowerLayer:sum(packetBytes) 0
attr interpolationmode none
attr source receivedPacketFromLowerLayer
scalar MobileHttpNetwork.ue.cellularNic.rlc.tm receivedPacketFromUpperLayer:count 0
attr interpolationmode none
attr source receivedPacketFromUpperLayer
scalar MobileHttpNetwork.ue.cellularNic.rlc.tm receivedPacketFromUpperLayer:sum(packetBytes) 0
attr interpolationmode none
attr source receivedPacketFromUpperLayer
par MobileHttpNetwork.ue.cellularNic.rlc.um typename "\"simu5g.stack.rlc.LteRlcUmD2D\""
par MobileHttpNetwork.ue.cellularNic.rlc.um queueSize 2097152B
attr unit B
par MobileHttpNetwork.ue.cellularNic.rlc.um mapAllLcidsToSingleBearer false
scalar MobileHttpNetwork.ue.cellularNic.rlc.um rlcPduPacketLossD2D:mean -nan
attr source rlcPduPacketLossD2D
attr title "rlc Packet Loss, mean"
attr unit ""
scalar MobileHttpNetwork.ue.cellularNic.rlc.um rlcPduThroughputD2D:mean -nan
attr source rlcPduThroughputD2D
attr title "Throughput at the rlc layer D2D, mean"
attr unit Bps
scalar MobileHttpNetwork.ue.cellularNic.rlc.um rlcPduDelayD2D:mean -nan
attr source rlcPduDelayD2D
attr title "Delay at the rlc layer D2D, mean"
attr unit s
scalar MobileHttpNetwork.ue.cellularNic.rlc.um rlcCellThroughputD2D:mean -nan
attr source rlcCellThroughputD2D
attr title "Cell Throughput at the rlc layer D2D, mean"
attr unit Bps
scalar MobileHttpNetwork.ue.cellularNic.rlc.um rlcCellPacketLossD2D:mean -nan
attr source rlcCellPacketLossD2D
attr title "rlc Cell Packet Loss, mean"
attr unit ""
scalar MobileHttpNetwork.ue.cellularNic.rlc.um rlcPacketLossD2D:mean -nan
attr source rlcPacketLossD2D
attr title "rlc Packet Loss, mean"
attr unit ""
scalar MobileHttpNetwork.ue.cellularNic.rlc.um rlcThroughputD2D:mean -nan
attr source rlcThroughputD2D
attr title "Throughput at the rlc layer D2D, mean"
attr unit Bps
scalar MobileHttpNetwork.ue.cellularNic.rlc.um rlcDelayD2D:mean -nan
attr source rlcDelayD2D
attr title "Delay at the rlc layer D2D, mean"
attr unit s
scalar MobileHttpNetwork.ue.cellularNic.rlc.um rlcPduPacketLossDl:mean -nan
attr source rlcPduPacketLossDl
attr title "rlc Packet Loss, mean"
attr unit ""
scalar MobileHttpNetwork.ue.cellularNic.rlc.um rlcPduPacketLossUl:mean -nan
attr source rlcPduPacketLossUl
attr title "rlc Packet Loss, mean"
attr unit ""
scalar MobileHttpNetwork.ue.cellularNic.rlc.um rlcPduThroughputUl:mean -nan
attr source rlcPduThroughputUl
attr title "Throughput at the rlc layer UL, mean"
attr unit Bps
scalar MobileHttpNetwork.ue.cellularNic.rlc.um rlcPduDelayUl:mean -nan
attr source rlcPduDelayUl
attr title "Delay at the rlc layer UL, mean"
attr unit s
scalar MobileHttpNetwork.ue.cellularNic.rlc.um rlcPduThroughputDl:mean -nan
attr source rlcPduThroughputDl
attr title "Throughput at the rlc layer DL, mean"
attr unit Bps
scalar MobileHttpNetwork.ue.cellularNic.rlc.um rlcPduDelayDl:mean -nan
attr source rlcPduDelayDl
attr title "Delay at the rlc layer UL, mean"
attr unit s
scalar MobileHttpNetwork.ue.cellularNic.rlc.um rlcCellPacketLossUl:mean -nan
attr source rlcCellPacketLossUl
attr title "rlc Cell Packet Loss, mean"
attr unit ""
scalar MobileHttpNetwork.ue.cellularNic.rlc.um rlcCellPacketLossDl:mean -nan
attr source rlcCellPacketLossDl
attr title "rlc Cell Packet Loss, mean"
attr unit ""
scalar MobileHttpNetwork.ue.cellularNic.rlc.um rlcCellThroughputDl:mean -nan
attr source rlcCellThroughputDl
attr title "Cell Throughput at the rlc layer DL, mean"
attr unit Bps
scalar MobileHttpNetwork.ue.cellularNic.rlc.um rlcCellThroughputUl:mean -nan
attr source rlcCellThroughputUl
attr title "Cell Throughput at the rlc layer UL, mean"
attr unit Bps
scalar MobileHttpNetwork.ue.cellularNic.rlc.um rlcPacketLossTotal:mean -nan
attr source rlcPacketLossTotal
attr title "rlc Packet Loss, mean"
attr unit ""
scalar MobileHttpNetwork.ue.cellularNic.rlc.um rlcThroughputUl:mean -nan
attr source rlcThroughputUl
attr title "Throughput at the rlc layer UL, mean"
attr unit Bps
scalar MobileHttpNetwork.ue.cellularNic.rlc.um rlcDelayUl:mean -nan
attr source rlcDelayUl
attr title "Delay at the rlc layer UL, mean"
attr unit s
scalar MobileHttpNetwork.ue.cellularNic.rlc.um rlcThroughputDl:mean -nan
attr source rlcThroughputDl
attr title "Throughput at the rlc layer DL, mean"
attr unit Bps
scalar MobileHttpNetwork.ue.cellularNic.rlc.um rlcDelayDl:mean -nan
attr source rlcDelayDl
attr title "Delay at the rlc layer DL, mean"
attr unit s
scalar MobileHttpNetwork.ue.cellularNic.rlc.um rlcPacketLossDl:mean -nan
attr source rlcPacketLossDl
attr title "rlc Packet Loss, mean"
attr unit ""
scalar MobileHttpNetwork.ue.cellularNic.rlc.um rlcPacketLossDl:sum 0
attr source rlcPacketLossDl
attr title "rlc Packet Loss, sum"
attr unit ""
scalar MobileHttpNetwork.ue.cellularNic.rlc.um rlcPacketLossUl:mean -nan
attr source rlcPacketLossUl
attr title "rlc Packet Loss, mean"
attr unit ""
scalar MobileHttpNetwork.ue.cellularNic.rlc.um rlcPacketLossUl:sum 0
attr source rlcPacketLossUl
attr title "rlc Packet Loss, sum"
attr unit ""
scalar MobileHttpNetwork.ue.cellularNic.rlc.um sentPacketToLowerLayer:count 0
attr interpolationmode none
attr source sentPacketToLowerLayer
scalar MobileHttpNetwork.ue.cellularNic.rlc.um sentPacketToLowerLayer:sum(packetBytes) 0
attr interpolationmode none
attr source sentPacketToLowerLayer
scalar MobileHttpNetwork.ue.cellularNic.rlc.um sentPacketToUpperLayer:count 0
attr interpolationmode none
attr source sentPacketToUpperLayer
scalar MobileHttpNetwork.ue.cellularNic.rlc.um sentPacketToUpperLayer:sum(packetBytes) 0
attr interpolationmode none
attr source sentPacketToUpperLayer
scalar MobileHttpNetwork.ue.cellularNic.rlc.um receivedPacketFromLowerLayer:count 0
attr interpolationmode none
attr source receivedPacketFromLowerLayer
scalar MobileHttpNetwork.ue.cellularNic.rlc.um receivedPacketFromLowerLayer:sum(packetBytes) 0
attr interpolationmode none
attr source receivedPacketFromLowerLayer
scalar MobileHttpNetwork.ue.cellularNic.rlc.um receivedPacketFromUpperLayer:count 0
attr interpolationmode none
attr source receivedPacketFromUpperLayer
scalar MobileHttpNetwork.ue.cellularNic.rlc.um receivedPacketFromUpperLayer:sum(packetBytes) 0
attr interpolationmode none
attr source receivedPacketFromUpperLayer
par MobileHttpNetwork.ue.cellularNic.rlc.am typename "\"simu5g.stack.rlc.LteRlcAm\""
scalar MobileHttpNetwork.ue.cellularNic.rlc.am rlcPduPacketLossDl:mean -nan
attr source rlcPduPacketLossDl
attr title "rlc Packet Loss, mean"
attr unit ""
scalar MobileHttpNetwork.ue.cellularNic.rlc.am rlcPduPacketLossUl:mean -nan
attr source rlcPduPacketLossUl
attr title "rlc Packet Loss, mean"
attr unit ""
scalar MobileHttpNetwork.ue.cellularNic.rlc.am rlcPduThroughputUl:mean -nan
attr source rlcPduThroughputUl
attr title "Throughput at the rlc layer UL, mean"
attr unit Bps
scalar MobileHttpNetwork.ue.cellularNic.rlc.am rlcPduDelayUl:mean -nan
attr source rlcPduDelayUl
attr title "Delay at the rlc layer UL, mean"
attr unit s
scalar MobileHttpNetwork.ue.cellularNic.rlc.am rlcPduThroughputDl:mean -nan
attr source rlcPduThroughputDl
attr title "Throughput at the rlc layer DL, mean"
attr unit Bps
scalar MobileHttpNetwork.ue.cellularNic.rlc.am rlcPduDelayDl:mean -nan
attr source rlcPduDelayDl
attr title "Delay at the rlc layer UL, mean"
attr unit s
scalar MobileHttpNetwork.ue.cellularNic.rlc.am rlcCellPacketLossUl:mean -nan
attr source rlcCellPacketLossUl
attr title "rlc Cell Packet Loss, mean"
attr unit ""
scalar MobileHttpNetwork.ue.cellularNic.rlc.am rlcCellPacketLossDl:mean -nan
attr source rlcCellPacketLossDl
attr title "rlc Cell Packet Loss, mean"
attr unit ""
scalar MobileHttpNetwork.ue.cellularNic.rlc.am rlcCellThroughputDl:mean -nan
attr source rlcCellThroughputDl
attr title "Cell Throughput at the rlc layer DL, mean"
attr unit Bps
scalar MobileHttpNetwork.ue.cellularNic.rlc.am rlcCellThroughputUl:mean -nan
attr source rlcCellThroughputUl
attr title "Cell Throughput at the rlc layer UL, mean"
attr unit Bps
scalar MobileHttpNetwork.ue.cellularNic.rlc.am rlcPacketLossTotal:mean -nan
attr source rlcPacketLossTotal
attr title "rlc Packet Loss, mean"
attr unit ""
scalar MobileHttpNetwork.ue.cellularNic.rlc.am rlcThroughputUl:mean -nan
attr source rlcThroughputUl
attr title "Throughput at the rlc layer UL, mean"
attr unit Bps
scalar MobileHttpNetwork.ue.cellularNic.rlc.am rlcDelayUl:mean -nan
attr source rlcDelayUl
attr title "Delay at the rlc layer UL, mean"
attr unit s
scalar MobileHttpNetwork.ue.cellularNic.rlc.am rlcThroughputDl:mean -nan
attr source rlcThroughputDl
attr title "Throughput at the rlc layer DL, mean"
attr unit Bps
scalar MobileHttpNetwork.ue.cellularNic.rlc.am rlcDelayDl:mean -nan
attr source rlcDelayDl
attr title "Delay at the rlc layer UL, mean"
attr unit s
scalar MobileHttpNetwork.ue.cellularNic.rlc.am rlcPacketLossDl:mean -nan
attr source rlcPacketLossDl
attr title "rlc Packet Loss, mean"
attr unit ""
scalar MobileHttpNetwork.ue.cellularNic.rlc.am rlcPacketLossUl:mean -nan
attr source rlcPacketLossUl
attr title "rlc Packet Loss, mean"
attr unit ""
par MobileHttpNetwork.ue.cellularNic.rlc.mux typename "\"simu5g.stack.rlc.LteRlcMux\""
par MobileHttpNetwork.ue.cellularNic.rlc typename "\"simu5g.stack.rlc.LteRlc\""
par MobileHttpNetwork.ue.cellularNic.rlc LteRlcUmType "\"LteRlcUm\""
par MobileHttpNetwork.ue.cellularNic.rlc d2dCapable true
par MobileHttpNetwork.ue.cellularNic.rlc umType "\"LteRlcUmD2D\""
par MobileHttpNetwork.ue.cellularNic.mac typename "\"simu5g.stack.mac.LteMacUeD2D\""
par MobileHttpNetwork.ue.cellularNic.mac interfaceTableModule "\"MobileHttpNetwork.ue.interfaceTable\""
par MobileHttpNetwork.ue.cellularNic.mac queueSize 2097152B
attr unit B
par MobileHttpNetwork.ue.cellularNic.mac muMimo true
par MobileHttpNetwork.ue.cellularNic.mac harqProcesses 8
par MobileHttpNetwork.ue.cellularNic.mac maxHarqRtx 3
par MobileHttpNetwork.ue.cellularNic.mac harqFbEvaluationTimer 4
par MobileHttpNetwork.ue.cellularNic.mac statDisplay false
par MobileHttpNetwork.ue.cellularNic.mac usePreconfiguredTxParams false
par MobileHttpNetwork.ue.cellularNic.mac d2dCqi 7
scalar MobileHttpNetwork.ue.cellularNic.mac rcvdD2DModeSwitchNotification:count 0
attr source rcvdD2DModeSwitchNotification
attr title "Reception of mode switch notification (tx side), count"
attr unit ""
scalar MobileHttpNetwork.ue.cellularNic.mac macThroughputD2D:mean -nan
attr source macThroughputD2D
attr title "Throughput at the MAC layer D2D, mean"
attr unit Bps
scalar MobileHttpNetwork.ue.cellularNic.mac macDelayD2D:mean -nan
attr source macDelayD2D
attr title "Delay at the MAC layer D2D, mean"
attr unit s
scalar MobileHttpNetwork.ue.cellularNic.mac macPacketLossD2D:mean -nan
attr source macPacketLossD2D
attr title "Mac Packet Loss D2D, mean"
attr unit ""
scalar MobileHttpNetwork.ue.cellularNic.mac harqErrorRateD2D:mean -nan
attr source harqErrorRateD2D
attr title "Harq Error Rate D2D, mean"
attr unit ""
scalar MobileHttpNetwork.ue.cellularNic.mac harqErrorRate_4th_D2D:mean -nan
attr source harqErrorRate_4th_D2D
attr title "Harq Error Rate D2D 4th Tx, mean"
attr unit ""
scalar MobileHttpNetwork.ue.cellularNic.mac harqErrorRate_3rd_D2D:mean -nan
attr source harqErrorRate_3rd_D2D
attr title "Harq Error Rate D2D 3rd Tx, mean"
attr unit ""
scalar MobileHttpNetwork.ue.cellularNic.mac harqErrorRate_2nd_D2D:mean -nan
attr source harqErrorRate_2nd_D2D
attr title "Harq Error Rate D2D 2nd Tx, mean"
attr unit ""
scalar MobileHttpNetwork.ue.cellularNic.mac harqErrorRate_1st_D2D:mean -nan
attr source harqErrorRate_1st_D2D
attr title "Harq Error Rate D2D 1st Tx, mean"
attr unit ""
scalar MobileHttpNetwork.ue.cellularNic.mac measuredItbs:mean -nan
attr source measuredItbs
attr title "TBS index, mean"
attr unit ""
scalar MobileHttpNetwork.ue.cellularNic.mac harqErrorRate_4th_Dl:mean -nan
attr source harqErrorRate_4th_Dl
attr title "Harq Error Rate Dl, mean"
attr unit ""
scalar MobileHttpNetwork.ue.cellularNic.mac harqErrorRate_4th_Ul:mean -nan
attr source harqErrorRate_4th_Ul
attr title "Harq Error Rate Ul, mean"
attr unit ""
scalar MobileHttpNetwork.ue.cellularNic.mac harqErrorRate_3rd_Dl:mean -nan
attr source harqErrorRate_3rd_Dl
attr title "Harq Error Rate Dl, mean"
attr unit ""
scalar MobileHttpNetwork.ue.cellularNic.mac harqErrorRate_3rd_Ul:mean -nan
attr source harqErrorRate_3rd_Ul
attr title "Harq Error Rate Ul, mean"
attr unit ""
scalar MobileHttpNetwork.ue.cellularNic.mac harqErrorRate_2nd_Dl:mean -nan
attr source harqErrorRate_2nd_Dl
attr title "Harq Error Rate Dl, mean"
attr unit ""
scalar MobileHttpNetwork.ue.cellularNic.mac harqErrorRate_2nd_Ul:mean -nan
attr source harqErrorRate_2nd_Ul
attr title "Harq Error Rate Ul, mean"
attr unit ""
scalar MobileHttpNetwork.ue.cellularNic.mac harqErrorRate_1st_Dl:mean -nan
attr source harqErrorRate_1st_Dl
attr title "Harq Error Rate Dl, mean"
attr unit ""
scalar MobileHttpNetwork.ue.cellularNic.mac harqErrorRate_1st_Ul:mean -nan
attr source harqErrorRate_1st_Ul
attr title "Harq Error Rate Ul, mean"
attr unit ""
scalar MobileHttpNetwork.ue.cellularNic.mac harqTxAttemptsUl:mean -nan
attr source harqTxAttemptsUl
attr title "Harq Tx Attempts Ul, mean"
attr unit ""
scalar MobileHttpNetwork.ue.cellularNic.mac harqTxAttemptsDl:mean -nan
attr source harqTxAttemptsDl
attr title "Harq Tx Attempts Dl, mean"
attr unit ""
scalar MobileHttpNetwork.ue.cellularNic.mac harqErrorRateDl:mean -nan
attr source harqErrorRateDl
attr title "Harq Error Rate Dl, mean"
attr unit ""
scalar MobileHttpNetwork.ue.cellularNic.mac harqErrorRateUl:mean -nan
attr source harqErrorRateUl
attr title "Harq Error Rate Ul, mean"
attr unit ""
scalar MobileHttpNetwork.ue.cellularNic.mac macBufferOverFlowD2D:mean -nan
attr source macBufferOverFlowD2D
attr title "Mac buffer overflow as function of time, mean"
attr unit Byte/s
scalar MobileHttpNetwork.ue.cellularNic.mac macBufferOverFlowUl:mean -nan
attr source macBufferOverFlowUl
attr title "Mac buffer overflow as function of time, mean"
attr unit Byte/s
scalar MobileHttpNetwork.ue.cellularNic.mac macBufferOverFlowDl:mean -nan
attr source macBufferOverFlowDl
attr title "Mac buffer overflow as function of time, mean"
attr unit Byte/s
scalar MobileHttpNetwork.ue.cellularNic.mac macPacketLossDl:mean -nan
attr source macPacketLossDl
attr title "Mac Packet Loss Dl, mean"
attr unit ""
scalar MobileHttpNetwork.ue.cellularNic.mac macPacketLossUl:mean -nan
attr source macPacketLossUl
attr title "Mac Packet Loss Ul, mean"
attr unit ""
scalar MobileHttpNetwork.ue.cellularNic.mac macCellPacketLossUl:mean -nan
attr source macCellPacketLossUl
attr title "Mac Cell Packet Loss Ul, mean"
attr unit ""
scalar MobileHttpNetwork.ue.cellularNic.mac macCellPacketLossDl:mean -nan
attr source macCellPacketLossDl
attr title "Mac Cell Packet Loss Dl, mean"
attr unit ""
scalar MobileHttpNetwork.ue.cellularNic.mac macCellThroughputDl:mean -nan
attr source macCellThroughputDl
attr title "Cell Throughput at the MAC layer DL, mean"
attr unit Bps
scalar MobileHttpNetwork.ue.cellularNic.mac macCellThroughputUl:mean -nan
attr source macCellThroughputUl
attr title "Cell Throughput at the MAC layer UL, mean"
attr unit Bps
scalar MobileHttpNetwork.ue.cellularNic.mac macThroughputUl:mean -nan
attr source macThroughputUl
attr title "Throughput at the MAC layer UL, mean"
attr unit Bps
scalar MobileHttpNetwork.ue.cellularNic.mac macDelayUl:mean -nan
attr source macDelayUl
attr title "Delay at the MAC layer UL, mean"
attr unit s
scalar MobileHttpNetwork.ue.cellularNic.mac macThroughputDl:mean -nan
attr source macThroughputDl
attr title "Throughput at the MAC layer DL, mean"
attr unit Bps
scalar MobileHttpNetwork.ue.cellularNic.mac macDelayDl:mean -nan
attr source macDelayDl
attr title "Delay at the MAC layer UL, mean"
attr unit s
scalar MobileHttpNetwork.ue.cellularNic.mac sentPacketToLowerLayer:count 0
attr interpolationmode none
attr source sentPacketToLowerLayer
scalar MobileHttpNetwork.ue.cellularNic.mac sentPacketToLowerLayer:sum(packetBytes) 0
attr interpolationmode none
attr source sentPacketToLowerLayer
scalar MobileHttpNetwork.ue.cellularNic.mac sentPacketToUpperLayer:count 0
attr interpolationmode none
attr source sentPacketToUpperLayer
scalar MobileHttpNetwork.ue.cellularNic.mac sentPacketToUpperLayer:sum(packetBytes) 0
attr interpolationmode none
attr source sentPacketToUpperLayer
scalar MobileHttpNetwork.ue.cellularNic.mac receivedPacketFromLowerLayer:count 0
attr interpolationmode none
attr source receivedPacketFromLowerLayer
scalar MobileHttpNetwork.ue.cellularNic.mac receivedPacketFromLowerLayer:sum(packetBytes) 0
attr interpolationmode none
attr source receivedPacketFromLowerLayer
scalar MobileHttpNetwork.ue.cellularNic.mac receivedPacketFromUpperLayer:count 0
attr interpolationmode none
attr source receivedPacketFromUpperLayer
scalar MobileHttpNetwork.ue.cellularNic.mac receivedPacketFromUpperLayer:sum(packetBytes) 0
attr interpolationmode none
attr source receivedPacketFromUpperLayer
par MobileHttpNetwork.ue.cellularNic.phy typename "\"simu5g.stack.phy.NRPhyUe\""
par MobileHttpNetwork.ue.cellularNic.phy ueTxPower 26
par MobileHttpNetwork.ue.cellularNic.phy eNodeBTxPower 40
par MobileHttpNetwork.ue.cellularNic.phy microTxPower 30
par MobileHttpNetwork.ue.cellularNic.phy txDirection "\"OMNI\""
par MobileHttpNetwork.ue.cellularNic.phy txAngle 0
par MobileHttpNetwork.ue.cellularNic.phy dynamicCellAssociation false
par MobileHttpNetwork.ue.cellularNic.phy enableHandover false
par MobileHttpNetwork.ue.cellularNic.phy handoverLatency 0.05s
attr unit s
par MobileHttpNetwork.ue.cellularNic.phy enableMulticastD2DRangeCheck false
par MobileHttpNetwork.ue.cellularNic.phy multicastD2DRange 1000m
attr unit m
par MobileHttpNetwork.ue.cellularNic.phy minRssiDefault true
par MobileHttpNetwork.ue.cellularNic.phy minRssi -99dB
attr unit dB
par MobileHttpNetwork.ue.cellularNic.phy d2dTxPower 26
par MobileHttpNetwork.ue.cellularNic.phy d2dMulticastCaptureEffect true
par MobileHttpNetwork.ue.cellularNic.phy d2dMulticastCaptureEffectFactor "\"RSRP\""
scalar MobileHttpNetwork.ue.cellularNic.phy averageCqiD2D:mean -nan
attr source averageCqiD2D
attr title "Average Cqi reported in D2D, mean"
attr unit cqi
scalar MobileHttpNetwork.ue.cellularNic.phy averageCqiUl:mean -nan
attr source averageCqiUl
attr title "Average Cqi reported in UL, mean"
attr unit cqi
scalar MobileHttpNetwork.ue.cellularNic.phy averageCqiUl:count 0
attr source averageCqiUl
attr title "Average Cqi reported in UL, count"
attr unit cqi
scalar MobileHttpNetwork.ue.cellularNic.phy averageCqiDl:mean -nan
attr source averageCqiDl
attr title "Average Cqi reported in DL, mean"
attr unit cqi
scalar MobileHttpNetwork.ue.cellularNic.phy averageCqiDl:count 0
attr source averageCqiDl
attr title "Average Cqi reported in DL, count"
attr unit cqi
par MobileHttpNetwork.ue.cellularNic.channelModel[0] typename "\"simu5g.stack.phy.ChannelModel.LteRealisticChannelModel\""
par MobileHttpNetwork.ue.cellularNic.channelModel[0] componentCarrierIndex 0
par MobileHttpNetwork.ue.cellularNic.channelModel[0] shadowing true
par MobileHttpNetwork.ue.cellularNic.channelModel[0] scenario "\"URBAN_MACROCELL\""
par MobileHttpNetwork.ue.cellularNic.channelModel[0] nodeb_height 25
par MobileHttpNetwork.ue.cellularNic.channelModel[0] building_height 20
par MobileHttpNetwork.ue.cellularNic.channelModel[0] inside_building false
par MobileHttpNetwork.ue.cellularNic.channelModel[0] street_wide 20
par MobileHttpNetwork.ue.cellularNic.channelModel[0] ue_height 1.5
par MobileHttpNetwork.ue.cellularNic.channelModel[0] tolerateMaxDistViolation false
par MobileHttpNetwork.ue.cellularNic.channelModel[0] useTorus false
par MobileHttpNetwork.ue.cellularNic.channelModel[0] correlation_distance 50
par MobileHttpNetwork.ue.cellularNic.channelModel[0] targetBler 0.01
par MobileHttpNetwork.ue.cellularNic.channelModel[0] harqReduction 0.2
par MobileHttpNetwork.ue.cellularNic.channelModel[0] lambdaMinTh 0.02
par MobileHttpNetwork.ue.cellularNic.channelModel[0] lambdaMaxTh 0.2
par MobileHttpNetwork.ue.cellularNic.channelModel[0] lambdaRatioTh 20
par MobileHttpNetwork.ue.cellularNic.channelModel[0] antennaGainUe 0
par MobileHttpNetwork.ue.cellularNic.channelModel[0] antennGainEnB 18
par MobileHttpNetwork.ue.cellularNic.channelModel[0] antennGainMicro 5
par MobileHttpNetwork.ue.cellularNic.channelModel[0] thermalNoise -104.5
par MobileHttpNetwork.ue.cellularNic.channelModel[0] ue_noise_figure 7
par MobileHttpNetwork.ue.cellularNic.channelModel[0] bs_noise_figure 5
par MobileHttpNetwork.ue.cellularNic.channelModel[0] cable_loss 2
par MobileHttpNetwork.ue.cellularNic.channelModel[0] dynamic_los false
par MobileHttpNetwork.ue.cellularNic.channelModel[0] fixed_los false
par MobileHttpNetwork.ue.cellularNic.channelModel[0] fading true
par MobileHttpNetwork.ue.cellularNic.channelModel[0] fading_type "\"JAKES\""
par MobileHttpNetwork.ue.cellularNic.channelModel[0] fading_paths 6
par MobileHttpNetwork.ue.cellularNic.channelModel[0] delay_rms 3.63e-07
par MobileHttpNetwork.ue.cellularNic.channelModel[0] bgCell_interference true
par MobileHttpNetwork.ue.cellularNic.channelModel[0] extCell_interference true
par MobileHttpNetwork.ue.cellularNic.channelModel[0] downlink_interference false
par MobileHttpNetwork.ue.cellularNic.channelModel[0] uplink_interference false
par MobileHttpNetwork.ue.cellularNic.channelModel[0] d2d_interference true
par MobileHttpNetwork.ue.cellularNic.channelModel[0] enable_extCell_los true
par MobileHttpNetwork.ue.cellularNic.channelModel[0] useRsrqFromLog false
par MobileHttpNetwork.ue.cellularNic.channelModel[0] rsrqShift 22
par MobileHttpNetwork.ue.cellularNic.channelModel[0] rsrqScale 1
par MobileHttpNetwork.ue.cellularNic.channelModel[0] collectSinrStatistics true
scalar MobileHttpNetwork.ue.cellularNic.channelModel[0] distance:mean -nan
attr source distance
attr title "distance between UE and serving eNB, mean"
attr unit meters
scalar MobileHttpNetwork.ue.cellularNic.channelModel[0] measuredSinrUl:mean 32.510977428178
attr source measuredSinrUl
attr title "SINR measured at feedback computation, UL, mean"
attr unit dB
scalar MobileHttpNetwork.ue.cellularNic.channelModel[0] measuredSinrDl:mean 44.47745851435
attr source measuredSinrDl
attr title "SINR measured at feedback computation, DL, mean"
attr unit dB
scalar MobileHttpNetwork.ue.cellularNic.channelModel[0] rcvdSinrUl:mean -nan
attr source rcvdSinrUl
attr title "SINR measured at packet reception, UL, mean"
attr unit dB
scalar MobileHttpNetwork.ue.cellularNic.channelModel[0] rcvdSinrDl:mean -nan
attr source rcvdSinrDl
attr title "SINR measured at packet reception, DL, mean"
attr unit dB
par MobileHttpNetwork.ue.cellularNic.dlFbGen typename "\"simu5g.stack.phy.feedback.LteDlFeedbackGenerator\""
par MobileHttpNetwork.ue.cellularNic.dlFbGen feedbackType "\"ALLBANDS\""
par MobileHttpNetwork.ue.cellularNic.dlFbGen rbAllocationType "\"localized\""
par MobileHttpNetwork.ue.cellularNic.dlFbGen fbPeriod 6
par MobileHttpNetwork.ue.cellularNic.dlFbGen fbDelay 1
par MobileHttpNetwork.ue.cellularNic.dlFbGen usePeriodic true
par MobileHttpNetwork.ue.cellularNic.dlFbGen initialTxMode "\"SINGLE_ANTENNA_PORT0\""
par MobileHttpNetwork.ue.cellularNic.dlFbGen feedbackGeneratorType "\"IDEAL\""
par MobileHttpNetwork.ue.cellularNic.nrRlc.tm typename "\"simu5g.stack.rlc.LteRlcTm\""
par MobileHttpNetwork.ue.cellularNic.nrRlc.tm queueSize 2097152B
attr unit B
scalar MobileHttpNetwork.ue.cellularNic.nrRlc.tm rlcPacketLossDl:mean -nan
attr source rlcPacketLossDl
attr title "rlc Packet Loss, mean"
attr unit ""
scalar MobileHttpNetwork.ue.cellularNic.nrRlc.tm rlcPacketLossDl:sum 0
[...]
attr interpolationmode none
attr source packetDropReasonIsIncorrectlyReceived(packetDropped)
attr title "packet drop: incorrectly received, count"
scalar MobileHttpNetwork.gnb.pppMEHostIf.ppp packetDropIncorrectlyReceived:sum(packetBytes) 0
attr interpolationmode none
attr source packetDropReasonIsIncorrectlyReceived(packetDropped)
attr title "packet drop: incorrectly received, sum(packetBytes)"
scalar MobileHttpNetwork.gnb.pppMEHostIf.ppp packetDropInterfaceDown:count 0
attr interpolationmode none
attr source packetDropReasonIsInterfaceDown(packetDropped)
attr title "packet drop: interface down, count"
scalar MobileHttpNetwork.gnb.pppMEHostIf.ppp packetDropInterfaceDown:sum(packetBytes) 0
attr interpolationmode none
attr source packetDropReasonIsInterfaceDown(packetDropped)
attr title "packet drop: interface down, sum(packetBytes)"
par MobileHttpNetwork.gnb.pppMEHostIf typename "\"inet.linklayer.ppp.PppInterface\""
par MobileHttpNetwork.gnb.pppMEHostIf displayStringTextFormat "\"%a (%i)\\n%m\""
par MobileHttpNetwork.gnb.pppMEHostIf recordPcap false
par MobileHttpNetwork.gnb.pppMEHostIf numPcapRecorders 0
par MobileHttpNetwork.gnb.pppMEHostIf interfaceTableModule "\"MobileHttpNetwork.gnb.interfaceTable\""
par MobileHttpNetwork.gnb.ipv4.transportIn.channel typename "\"ned.IdealChannel\""
par MobileHttpNetwork.gnb.ipv4.up.out[0].channel typename "\"ned.IdealChannel\""
par MobileHttpNetwork.gnb.ipv4.lp.out[2].channel typename "\"ned.IdealChannel\""
par MobileHttpNetwork.gnb.ipv4.ifIn.channel typename "\"ned.IdealChannel\""
par MobileHttpNetwork.gnb.ipv4.configurator typename "\"inet.networklayer.configurator.ipv4.Ipv4NodeConfigurator\""
par MobileHttpNetwork.gnb.ipv4.configurator interfaceTableModule "\"MobileHttpNetwork.gnb.interfaceTable\""
par MobileHttpNetwork.gnb.ipv4.configurator routingTableModule "\"MobileHttpNetwork.gnb.ipv4.routingTable\""
par MobileHttpNetwork.gnb.ipv4.configurator networkConfiguratorModule "\"configurator\""
par MobileHttpNetwork.gnb.ipv4.configurator configureRoutingTable true
par MobileHttpNetwork.gnb.ipv4.routingTable typename "\"inet.networklayer.ipv4.Ipv4RoutingTable\""
par MobileHttpNetwork.gnb.ipv4.routingTable interfaceTableModule "\"MobileHttpNetwork.gnb.interfaceTable\""
par MobileHttpNetwork.gnb.ipv4.routingTable routerId "\"auto\""
par MobileHttpNetwork.gnb.ipv4.routingTable netmaskRoutes "\"*\""
par MobileHttpNetwork.gnb.ipv4.routingTable forwarding true
par MobileHttpNetwork.gnb.ipv4.routingTable multicastForwarding false
par MobileHttpNetwork.gnb.ipv4.routingTable useAdminDist false
par MobileHttpNetwork.gnb.ipv4.routingTable routingFile "\"\""
par MobileHttpNetwork.gnb.ipv4.natTable typename "\"inet.networklayer.ipv4.Ipv4NatTable\""
par MobileHttpNetwork.gnb.ipv4.natTable networkProtocolModule "\"^.ip\""
par MobileHttpNetwork.gnb.ipv4.natTable config "<config/> at content:1"
par MobileHttpNetwork.gnb.ipv4.up typename "\"inet.common.MessageDispatcher\""
par MobileHttpNetwork.gnb.ipv4.up displayStringTextFormat "\"processed %p pk (%l)\""
par MobileHttpNetwork.gnb.ipv4.igmp typename "\"inet.networklayer.ipv4.Igmpv2\""
par MobileHttpNetwork.gnb.ipv4.igmp interfaceTableModule "\"MobileHttpNetwork.gnb.interfaceTable\""
par MobileHttpNetwork.gnb.ipv4.igmp routingTableModule "\"MobileHttpNetwork.gnb.ipv4.routingTable\""
par MobileHttpNetwork.gnb.ipv4.igmp crcMode "\"declared\""
attr enum declared,computed
par MobileHttpNetwork.gnb.ipv4.igmp enabled true
par MobileHttpNetwork.gnb.ipv4.igmp robustnessVariable 2
par MobileHttpNetwork.gnb.ipv4.igmp queryInterval 125s
attr unit s
par MobileHttpNetwork.gnb.ipv4.igmp queryResponseInterval 10s
attr unit s
par MobileHttpNetwork.gnb.ipv4.igmp groupMembershipInterval 260s
attr unit s
par MobileHttpNetwork.gnb.ipv4.igmp otherQuerierPresentInterval 255s
attr unit s
par MobileHttpNetwork.gnb.ipv4.igmp startupQueryInterval 31.25s
attr unit s
par MobileHttpNetwork.gnb.ipv4.igmp startupQueryCount 2
par MobileHttpNetwork.gnb.ipv4.igmp lastMemberQueryInterval 1s
attr unit s
par MobileHttpNetwork.gnb.ipv4.igmp lastMemberQueryCount 2
par MobileHttpNetwork.gnb.ipv4.igmp unsolicitedReportInterval 10s
attr unit s
par MobileHttpNetwork.gnb.ipv4.icmp typename "\"inet.networklayer.ipv4.Icmp\""
par MobileHttpNetwork.gnb.ipv4.icmp interfaceTableModule "\"MobileHttpNetwork.gnb.interfaceTable\""
par MobileHttpNetwork.gnb.ipv4.icmp routingTableModule "\"MobileHttpNetwork.gnb.ipv4.routingTable\""
par MobileHttpNetwork.gnb.ipv4.icmp crcMode "\"declared\""
attr enum declared,computed
par MobileHttpNetwork.gnb.ipv4.icmp quoteLength 8B
attr unit B
par MobileHttpNetwork.gnb.ipv4.mp typename "\"inet.common.MessageDispatcher\""
par MobileHttpNetwork.gnb.ipv4.mp displayStringTextFormat "\"processed %p pk (%l)\""
par MobileHttpNetwork.gnb.ipv4.ip typename "\"inet.networklayer.ipv4.Ipv4\""
par MobileHttpNetwork.gnb.ipv4.ip interfaceTableModule "\"MobileHttpNetwork.gnb.interfaceTable\""
par MobileHttpNetwork.gnb.ipv4.ip routingTableModule "\"MobileHttpNetwork.gnb.ipv4.routingTable\""
par MobileHttpNetwork.gnb.ipv4.ip arpModule "\"MobileHttpNetwork.gnb.ipv4.arp\""
par MobileHttpNetwork.gnb.ipv4.ip icmpModule "\"MobileHttpNetwork.gnb.ipv4.icmp\""
par MobileHttpNetwork.gnb.ipv4.ip crcMode "\"declared\""
attr enum declared,computed
par MobileHttpNetwork.gnb.ipv4.ip timeToLive 32
par MobileHttpNetwork.gnb.ipv4.ip multicastTimeToLive 32
par MobileHttpNetwork.gnb.ipv4.ip fragmentTimeout 60s
attr unit s
par MobileHttpNetwork.gnb.ipv4.ip limitedBroadcast false
par MobileHttpNetwork.gnb.ipv4.ip directBroadcastInterfaces "\"\""
scalar MobileHttpNetwork.gnb.ipv4.ip packetDropAddressResolutionFailed:count 0
attr interpolationmode none
attr source packetDropReasonIsAddressResolutionFailed(packetDropped)
attr title "packet drop: address resolution failed, count"
scalar MobileHttpNetwork.gnb.ipv4.ip packetDropAddressResolutionFailed:sum(packetBytes) 0
attr interpolationmode none
attr source packetDropReasonIsAddressResolutionFailed(packetDropped)
attr title "packet drop: address resolution failed, sum(packetBytes)"
scalar MobileHttpNetwork.gnb.ipv4.ip packetDropHopLimitReached:count 0
attr interpolationmode none
attr source packetDropReasonIsHopLimitReached(packetDropped)
attr title "packet drop: hop limit reached, count"
scalar MobileHttpNetwork.gnb.ipv4.ip packetDropHopLimitReached:sum(packetBytes) 0
attr interpolationmode none
attr source packetDropReasonIsHopLimitReached(packetDropped)
attr title "packet drop: hop limit reached, sum(packetBytes)"
scalar MobileHttpNetwork.gnb.ipv4.ip packetDropForwardingDisabled:count 0
attr interpolationmode none
attr source packetDropReasonIsForwardingDisabled(packetDropped)
attr title "packet drop: forwarding disabled, count"
scalar MobileHttpNetwork.gnb.ipv4.ip packetDropForwardingDisabled:sum(packetBytes) 0
attr interpolationmode none
attr source packetDropReasonIsForwardingDisabled(packetDropped)
attr title "packet drop: forwarding disabled, sum(packetBytes)"
scalar MobileHttpNetwork.gnb.ipv4.ip packetDropNoInterfaceFound:count 0
attr interpolationmode none
attr source packetDropReasonIsNoInterfaceFound(packetDropped)
attr title "packet drop: no interface found, count"
scalar MobileHttpNetwork.gnb.ipv4.ip packetDropNoInterfaceFound:sum(packetBytes) 0
attr interpolationmode none
attr source packetDropReasonIsNoInterfaceFound(packetDropped)
attr title "packet drop: no interface found, sum(packetBytes)"
scalar MobileHttpNetwork.gnb.ipv4.ip packetDropNoRouteFound:count 0
attr interpolationmode none
attr source packetDropReasonIsNoRouteFound(packetDropped)
attr title "packet drop: no route found, count"
scalar MobileHttpNetwork.gnb.ipv4.ip packetDropNoRouteFound:sum(packetBytes) 0
attr interpolationmode none
attr source packetDropReasonIsNoRouteFound(packetDropped)
attr title "packet drop: no route found, sum(packetBytes)"
scalar MobileHttpNetwork.gnb.ipv4.ip packetDropUndefined:count 0
attr interpolationmode none
attr source packetDropReasonIsUndefined(packetDropped)
attr title "packet drop: undefined, count"
scalar MobileHttpNetwork.gnb.ipv4.ip packetDropUndefined:sum(packetBytes) 0
attr interpolationmode none
attr source packetDropReasonIsUndefined(packetDropped)
attr title "packet drop: undefined, sum(packetBytes)"
par MobileHttpNetwork.gnb.ipv4.arp typename "\"inet.networklayer.arp.ipv4.Arp\""
par MobileHttpNetwork.gnb.ipv4.arp interfaceTableModule "\"MobileHttpNetwork.gnb.interfaceTable\""
par MobileHttpNetwork.gnb.ipv4.arp routingTableModule "\"MobileHttpNetwork.gnb.ipv4.routingTable\""
par MobileHttpNetwork.gnb.ipv4.arp retryTimeout 1s
attr unit s
par MobileHttpNetwork.gnb.ipv4.arp retryCount 3
par MobileHttpNetwork.gnb.ipv4.arp cacheTimeout 100s
attr unit s
par MobileHttpNetwork.gnb.ipv4.arp proxyArpInterfaces "\"*\""
scalar MobileHttpNetwork.gnb.ipv4.arp arpResolutionFailed:count 0
attr title "ARP failed resolutions, count"
scalar MobileHttpNetwork.gnb.ipv4.arp arpResolutionCompleted:count 0
attr title "ARP completed resolutions, count"
scalar MobileHttpNetwork.gnb.ipv4.arp arpResolutionInitiated:count 0
attr title "ARP initiated resolutions, count"
scalar MobileHttpNetwork.gnb.ipv4.arp arpReplySent:count 0
attr source arpReplySent
attr title "ARP replies sent, count"
scalar MobileHttpNetwork.gnb.ipv4.arp arpReplySent:sum(packetBytes) 0
attr source arpReplySent
attr title "ARP replies sent, sum(packetBytes)"
scalar MobileHttpNetwork.gnb.ipv4.arp arpRequestSent:count 0
attr source arpRequestSent
attr title "ARP request sent, count"
scalar MobileHttpNetwork.gnb.ipv4.arp arpRequestSent:sum(packetBytes) 0
attr source arpRequestSent
attr title "ARP request sent, sum(packetBytes)"
par MobileHttpNetwork.gnb.ipv4.lp typename "\"inet.common.MessageDispatcher\""
par MobileHttpNetwork.gnb.ipv4.lp displayStringTextFormat "\"processed %p pk (%l)\""
par MobileHttpNetwork.gnb.ipv4 typename "\"inet.networklayer.ipv4.Ipv4NetworkLayer\""
par MobileHttpNetwork.gnb.ipv4 forwarding true
par MobileHttpNetwork.gnb.ipv4 multicastForwarding false
par MobileHttpNetwork.gnb.ipv4 interfaceTableModule "\"MobileHttpNetwork.gnb.interfaceTable\""
par MobileHttpNetwork.gnb.ipv4 displayStringTextFormat "\"%i\""
par MobileHttpNetwork.gnb.udp typename "\"inet.transportlayer.udp.Udp\""
par MobileHttpNetwork.gnb.udp interfaceTableModule "\"MobileHttpNetwork.gnb.interfaceTable\""
par MobileHttpNetwork.gnb.udp icmpModule "\"^.ipv4.icmp\""
par MobileHttpNetwork.gnb.udp icmpv6Module "\"^.ipv6.icmpv6\""
par MobileHttpNetwork.gnb.udp crcMode "\"declared\""
attr enum disabled,declared,computed
scalar MobileHttpNetwork.gnb.udp packetReceived:count 0
attr interpolationmode none
attr source packetReceived
attr title "packets received, count"
scalar MobileHttpNetwork.gnb.udp packetReceived:sum(packetBytes) 0
attr interpolationmode none
attr source packetReceived
attr title "packets received, sum(packetBytes)"
scalar MobileHttpNetwork.gnb.udp packetSent:count 0
attr interpolationmode none
attr source packetSent
attr title "packets sent, count"
scalar MobileHttpNetwork.gnb.udp packetSent:sum(packetBytes) 0
attr interpolationmode none
attr source packetSent
attr title "packets sent, sum(packetBytes)"
scalar MobileHttpNetwork.gnb.udp passedUpPk:count 0
attr interpolationmode none
attr source packetSentToUpper
attr title "packets passed up, count"
scalar MobileHttpNetwork.gnb.udp droppedPkWrongPort:count 0
attr interpolationmode none
attr source packetDropReasonIsNoPortFound(packetDropped)
attr title "packets dropped (wrong port), count"
scalar MobileHttpNetwork.gnb.udp droppedPkBadChecksum:count 0
attr interpolationmode none
attr source packetDropReasonIsIncorrectlyReceived(packetDropped)
attr title "packets dropped (checksum error), count"
par MobileHttpNetwork.gnb.tcp typename "\"inet.transportlayer.tcp.Tcp\""
par MobileHttpNetwork.gnb.tcp crcMode "\"declared\""
attr enum declared,computed
par MobileHttpNetwork.gnb.tcp advertisedWindow 14336
par MobileHttpNetwork.gnb.tcp delayedAcksEnabled false
par MobileHttpNetwork.gnb.tcp nagleEnabled true
par MobileHttpNetwork.gnb.tcp limitedTransmitEnabled false
par MobileHttpNetwork.gnb.tcp increasedIWEnabled false
par MobileHttpNetwork.gnb.tcp sackSupport false
par MobileHttpNetwork.gnb.tcp windowScalingSupport false
par MobileHttpNetwork.gnb.tcp windowScalingFactor -1
par MobileHttpNetwork.gnb.tcp timestampSupport false
par MobileHttpNetwork.gnb.tcp mss 1024
par MobileHttpNetwork.gnb.tcp msl 120s
attr unit s
par MobileHttpNetwork.gnb.tcp tcpAlgorithmClass "\"TcpReno\""
attr enum TcpVegas,TcpWestwood,TcpNewReno,TcpReno,TcpTahoe,TcpNoCongestionControl
par MobileHttpNetwork.gnb.tcp useDataNotification false
par MobileHttpNetwork.gnb.tcp dupthresh 3
par MobileHttpNetwork.gnb.tcp initialSsthresh 4294967295
par MobileHttpNetwork.gnb.tcp stopOperationExtraTime 0s
attr unit s
par MobileHttpNetwork.gnb.tcp stopOperationTimeout 2s
attr unit s
par MobileHttpNetwork.gnb.tcp ecnWillingness false
par MobileHttpNetwork.gnb.tcp dctcpGamma 0.0625
par MobileHttpNetwork.gnb.sctp typename "\"inet.transportlayer.sctp.Sctp\""
par MobileHttpNetwork.gnb.sctp interfaceTableModule "\"MobileHttpNetwork.gnb.interfaceTable\""
par MobileHttpNetwork.gnb.sctp routingTableModule "\"^.ipv4.routingTable\""
par MobileHttpNetwork.gnb.sctp crcMode "\"declared\""
attr enum declared,computed
par MobileHttpNetwork.gnb.sctp numGapReports 3
par MobileHttpNetwork.gnb.sctp rtoInitial 3s
attr unit s
par MobileHttpNetwork.gnb.sctp rtoMin 1s
attr unit s
par MobileHttpNetwork.gnb.sctp rtoMax 60s
attr unit s
par MobileHttpNetwork.gnb.sctp rtoAlpha 0.125
par MobileHttpNetwork.gnb.sctp rtoBeta 0.25
par MobileHttpNetwork.gnb.sctp maxBurst 4
par MobileHttpNetwork.gnb.sctp maxBurstVariant "\"maxBurst\""
par MobileHttpNetwork.gnb.sctp initialWindow 0
par MobileHttpNetwork.gnb.sctp assocMaxRetrans 10
par MobileHttpNetwork.gnb.sctp pathMaxRetrans 5
par MobileHttpNetwork.gnb.sctp maxInitRetrans 8
par MobileHttpNetwork.gnb.sctp sackPeriod 0.2s
attr unit s
par MobileHttpNetwork.gnb.sctp sackFrequency 2
par MobileHttpNetwork.gnb.sctp reactivatePrimaryPath false
par MobileHttpNetwork.gnb.sctp sendQueueLimit 0
par MobileHttpNetwork.gnb.sctp validCookieLifetime 10s
attr unit s
par MobileHttpNetwork.gnb.sctp enableHeartbeats true
par MobileHttpNetwork.gnb.sctp hbInterval 30s
attr unit s
par MobileHttpNetwork.gnb.sctp sendHeartbeatsOnActivePaths false
par MobileHttpNetwork.gnb.sctp nagleEnabled true
par MobileHttpNetwork.gnb.sctp naglePoint 1468
par MobileHttpNetwork.gnb.sctp fragPoint 1452
par MobileHttpNetwork.gnb.sctp fastRecoverySupported true
par MobileHttpNetwork.gnb.sctp sctpAlgorithmClass "\"SctpAlg\""
par MobileHttpNetwork.gnb.sctp ccModule 0
par MobileHttpNetwork.gnb.sctp osbWithHeader false
par MobileHttpNetwork.gnb.sctp RTXMethod 0
par MobileHttpNetwork.gnb.sctp ssModule 0
par MobileHttpNetwork.gnb.sctp arwnd 65535
par MobileHttpNetwork.gnb.sctp swsLimit 3000
par MobileHttpNetwork.gnb.sctp udpEncapsEnabled false
par MobileHttpNetwork.gnb.sctp natFriendly false
par MobileHttpNetwork.gnb.sctp bytesToAddPerRcvdChunk 0
par MobileHttpNetwork.gnb.sctp bytesToAddPerPeerChunk 0
par MobileHttpNetwork.gnb.sctp tellArwnd false
par MobileHttpNetwork.gnb.sctp messageAcceptLimit 0
par MobileHttpNetwork.gnb.sctp fairStart 0s
attr unit s
par MobileHttpNetwork.gnb.sctp fairStop 0s
attr unit s
par MobileHttpNetwork.gnb.sctp streamsToPaths "\"\""
par MobileHttpNetwork.gnb.sctp startEndToEndDelay 0
par MobileHttpNetwork.gnb.sctp stopEndToEndDelay 10
par MobileHttpNetwork.gnb.sctp throughputInterval 1
par MobileHttpNetwork.gnb.sctp auth false
par MobileHttpNetwork.gnb.sctp chunks "\"\""
par MobileHttpNetwork.gnb.sctp padding false
par MobileHttpNetwork.gnb.sctp addIP false
par MobileHttpNetwork.gnb.sctp addTime 0s
attr unit s
par MobileHttpNetwork.gnb.sctp addAddress "\"\""
par MobileHttpNetwork.gnb.sctp addIpType "\"0\""
par MobileHttpNetwork.gnb.sctp packetDrop false
par MobileHttpNetwork.gnb.sctp sackNow false
par MobileHttpNetwork.gnb.sctp highSpeedCC false
par MobileHttpNetwork.gnb.sctp checkSackSeqNumber false
par MobileHttpNetwork.gnb.sctp nrSack false
par MobileHttpNetwork.gnb.sctp disableReneging false
par MobileHttpNetwork.gnb.sctp gapReportLimit 100000000
par MobileHttpNetwork.gnb.sctp gapListOptimizationVariant "\"none\""
par MobileHttpNetwork.gnb.sctp smartOverfullSACKHandling false
par MobileHttpNetwork.gnb.sctp allowQoSTracking false
par MobileHttpNetwork.gnb.sctp qosTrackingInterval 1s
attr unit s
par MobileHttpNetwork.gnb.sctp cmtSendAllVariant "\"normal\""
par MobileHttpNetwork.gnb.sctp cmtRetransmissionVariant "\"normal\""
par MobileHttpNetwork.gnb.sctp cmtCUCVariant "\"normal\""
par MobileHttpNetwork.gnb.sctp cmtBufferSplitVariant "\"none\""
par MobileHttpNetwork.gnb.sctp cmtBufferSplittingUsesOSB false
par MobileHttpNetwork.gnb.sctp cmtUseSFR true
par MobileHttpNetwork.gnb.sctp cmtUseDAC true
par MobileHttpNetwork.gnb.sctp cmtUseFRC true
par MobileHttpNetwork.gnb.sctp cmtSmartT3Reset true
par MobileHttpNetwork.gnb.sctp cmtSmartFastRTX true
par MobileHttpNetwork.gnb.sctp cmtSmartReneging false
par MobileHttpNetwork.gnb.sctp cmtSlowPathRTTUpdate false
par MobileHttpNetwork.gnb.sctp cmtChunkReschedulingVariant "\"none\""
par MobileHttpNetwork.gnb.sctp cmtChunkReschedulingThreshold 0.5
par MobileHttpNetwork.gnb.sctp cmtMovedChunksReduceCwnd true
par MobileHttpNetwork.gnb.sctp movedChunkFastRTXFactor 2
par MobileHttpNetwork.gnb.sctp cmtSackPath "\"standard\""
par MobileHttpNetwork.gnb.sctp strictCwndBooking false
par MobileHttpNetwork.gnb.sctp cmtCCVariant "\"off\""
par MobileHttpNetwork.gnb.sctp cmtCCPathGroups "\"\""
par MobileHttpNetwork.gnb.sctp rpPathBlocking false
par MobileHttpNetwork.gnb.sctp rpScaleBlockingTimeout false
par MobileHttpNetwork.gnb.sctp rpMinCwnd 1
par MobileHttpNetwork.gnb.at typename "\"inet.common.MessageDispatcher\""
par MobileHttpNetwork.gnb.at displayStringTextFormat "\"processed %p pk (%l)\""
par MobileHttpNetwork.gnb.tn typename "\"inet.common.MessageDispatcher\""
par MobileHttpNetwork.gnb.tn displayStringTextFormat "\"processed %p pk (%l)\""
par MobileHttpNetwork.gnb.nl typename "\"inet.common.MessageDispatcher\""
par MobileHttpNetwork.gnb.nl displayStringTextFormat "\"processed %p pk (%l)\""
par MobileHttpNetwork.gnb.trafficFlowFilter typename "\"simu5g.corenetwork.trafficFlowFilter.TrafficFlowFilter\""
par MobileHttpNetwork.gnb.trafficFlowFilter ownerType "\"GNODEB\""
par MobileHttpNetwork.gnb.trafficFlowFilter fastForwarding true
par MobileHttpNetwork.gnb.gtpUser typename "\"simu5g.corenetwork.gtp.GtpUser\""
par MobileHttpNetwork.gnb.gtpUser interfaceTableModule "\"MobileHttpNetwork.gnb.interfaceTable\""
par MobileHttpNetwork.gnb.gtpUser ipOutInterface "\"wlan\""
par MobileHttpNetwork.gnb.gtpUser localPort 31
par MobileHttpNetwork.gnb.gtpUser tunnelPeerPort 31
par MobileHttpNetwork.gnb.gtpUser filter true
par MobileHttpNetwork.gnb.gtpUserX2 typename "\"simu5g.corenetwork.gtp.GtpUserX2\""
par MobileHttpNetwork.gnb.gtpUserX2 localPort 32
par MobileHttpNetwork.gnb.gtpUserX2 tunnelPeerPort 32
par MobileHttpNetwork.gnb typename "\"simu5g.nodes.NR.gNodeB\""
par MobileHttpNetwork.gnb nodeType "\"GNODEB\""
par MobileHttpNetwork.gnb gateway "\"upf\""
par MobileHttpNetwork.gnb masterId 0
par MobileHttpNetwork.gnb macNodeId 1
par MobileHttpNetwork.gnb macCellId 1
par MobileHttpNetwork.gnb txPower 100mw
attr unit mw
par MobileHttpNetwork.gnb nicType "\"NRNicEnb\""
par MobileHttpNetwork.gnb hasIpv4 true
par MobileHttpNetwork.gnb hasIpv6 false
par MobileHttpNetwork.gnb numApps 0
par MobileHttpNetwork.gnb numX2Apps 0
par MobileHttpNetwork.gnb hasUdp true
par MobileHttpNetwork.gnb hasTcp true
par MobileHttpNetwork.gnb hasSctp true
par MobileHttpNetwork.gnb mecHost "\"\""
par MobileHttpNetwork.gnb StatsCollectorType "\"GNodeBStatsCollector\""
par MobileHttpNetwork.gnb hasRNISupport false
par MobileHttpNetwork.gnb extMeAppsAddress "\"\""
par MobileHttpNetwork.gnb mcc "\"001\""
par MobileHttpNetwork.gnb mnc "\"01\""
par MobileHttpNetwork typename "\"mobile_web.MobileHttpNetwork\""

